LYSRSCPZ-x0606_A_805_1_LYSRSCPZ-x0407+D+802+1__LIG
     RDKit          3D

 15 16  0  0  0  0  0  0  0  0999 V2000
    4.6900    3.4270   42.5930 O   0  0  0  0  0  0  0  0  0  0  0  0
    4.3870    4.6150   42.5160 C   0  0  0  0  0  0  0  0  0  0  0  0
    3.6520    5.3030   43.4250 N   0  0  0  0  0  0  0  0  0  0  0  0
    3.3010    4.9580   44.7400 C   0  0  0  0  0  0  0  0  0  0  0  0
    3.7090    3.8010   45.4030 C   0  0  0  0  0  0  0  0  0  0  0  0
    3.2820    3.6140   46.6970 C   0  0  0  0  0  0  0  0  0  0  0  0
    2.4860    4.5620   47.3040 C   0  0  0  0  0  0  0  0  0  0  0  0
    2.1350    5.6710   46.5800 C   0  0  0  0  0  0  0  0  0  0  0  0
    2.5270    5.8880   45.3130 N   0  0  0  0  0  0  0  0  0  0  0  0
    4.8470    5.3780   41.3290 C   0  0  2  0  0  0  0  0  0  0  0  0
    4.3890    6.7780   41.1360 C   0  0  0  0  0  0  0  0  0  0  0  0
    4.7290    7.2670   39.8450 O   0  0  0  0  0  0  0  0  0  0  0  0
    5.9980    6.7870   39.4120 C   0  0  0  0  0  0  0  0  0  0  0  0
    6.0030    5.3020   39.2430 C   0  0  0  0  0  0  0  0  0  0  0  0
    5.0760    4.6580   40.1230 O   0  0  0  0  0  0  0  0  0  0  0  0
  1  2  2  0
  2  3  1  0
  3  4  1  0
  4  5  2  0
  5  6  1  0
  6  7  2  0
  7  8  1  0
  8  9  2  0
 10  2  1  1
 10 11  1  0
 11 12  1  0
 12 13  1  0
 13 14  1  0
 14 15  1  0
  4  9  1  0
 10 15  1  0
M  END
$$$$
