LYSRSCPZ-x0759_A_645_1_LYSRSCPZ-x0602+B+701+1__LIG
     RDKit          3D

 18 19  0  0  0  0  0  0  0  0999 V2000
    5.1710  -16.5200   27.7380 C   0  0  0  0  0  0  0  0  0  0  0  0
    3.8110  -15.9710   27.6980 C   0  0  0  0  0  0  0  0  0  0  0  0
    2.9490  -16.3460   28.6090 N   0  0  0  0  0  0  0  0  0  0  0  0
    1.7570  -15.6420   28.3170 O   0  0  0  0  0  0  0  0  0  0  0  0
    1.9780  -14.8660   27.2510 C   0  0  0  0  0  0  0  0  0  0  0  0
    0.8290  -14.0560   26.7990 C   0  0  0  0  0  0  0  0  0  0  0  0
    3.2590  -15.0400   26.8270 C   0  0  0  0  0  0  0  0  0  0  0  0
    3.9260  -14.3970   25.6760 C   0  0  0  0  0  0  0  0  0  0  0  0
    5.1450  -14.5130   25.5180 O   0  0  0  0  0  0  0  0  0  0  0  0
    3.2100  -13.7290   24.7780 N   0  0  0  0  0  0  0  0  0  0  0  0
    3.8270  -12.7520   23.8900 C   0  0  0  0  0  0  0  0  0  0  0  0
    4.3190  -11.5270   24.6520 C   0  0  0  0  0  0  0  0  0  0  0  0
    4.7960  -10.3780   23.7950 C   0  0  0  0  0  0  0  0  0  0  0  0
    5.0410  -10.4840   22.4850 C   0  0  0  0  0  0  0  0  0  0  0  0
    5.4590   -9.3400   21.6080 C   0  0  0  0  0  0  0  0  0  0  0  0
    5.2960   -8.0230   22.2880 C   0  0  0  0  0  0  0  0  0  0  0  0
    5.8060   -8.0920   23.6880 C   0  0  0  0  0  0  0  0  0  0  0  0
    5.0200   -9.0880   24.5130 C   0  0  0  0  0  0  0  0  0  0  0  0
  1  2  1  0
  2  3  2  0
  3  4  1  0
  4  5  1  0
  5  6  1  0
  5  7  2  0
  7  8  1  0
  8  9  2  0
  8 10  1  0
 10 11  1  0
 11 12  1  0
 12 13  1  0
 13 14  2  0
 14 15  1  0
 15 16  1  0
 16 17  1  0
 17 18  1  0
  2  7  1  0
 13 18  1  0
M  END
$$$$
