LYSRSCPZ-x0555_A_901_1_LYSRSCPZ-x0602+B+701+1__LIG
     RDKit          3D

 16 16  0  0  0  0  0  0  0  0999 V2000
    0.4090  -11.4480   24.7240 C   0  0  0  0  0  0  0  0  0  0  0  0
    1.6870  -12.0730   24.6570 O   0  0  0  0  0  0  0  0  0  0  0  0
    2.0310  -13.0250   25.5770 C   0  0  0  0  0  0  0  0  0  0  0  0
    1.1580  -13.5620   26.5200 C   0  0  0  0  0  0  0  0  0  0  0  0
    1.6000  -14.5100   27.4110 C   0  0  0  0  0  0  0  0  0  0  0  0
    2.9170  -14.9280   27.3540 C   0  0  0  0  0  0  0  0  0  0  0  0
    3.4930  -16.1350   28.4610 Cl  0  0  0  0  0  0  0  0  0  0  0  0
    3.7900  -14.4090   26.4380 C   0  0  0  0  0  0  0  0  0  0  0  0
    3.3710  -13.4440   25.5270 C   0  0  0  0  0  0  0  0  0  0  0  0
    4.3760  -12.9080   24.5660 C   0  0  0  0  0  0  0  0  0  0  0  0
    5.3700  -13.5750   24.2930 O   0  0  0  0  0  0  0  0  0  0  0  0
    4.1680  -11.6960   24.0440 N   0  0  0  0  0  0  0  0  0  0  0  0
    5.0110  -11.1370   22.9990 C   0  0  0  0  0  0  0  0  0  0  0  0
    4.7120   -9.6580   22.7850 C   0  0  0  0  0  0  0  0  0  0  0  0
    5.1290   -8.8340   23.9930 C   0  0  0  0  0  0  0  0  0  0  0  0
    5.3700   -9.1390   21.5180 C   0  0  0  0  0  0  0  0  0  0  0  0
  1  2  1  0
  2  3  1  0
  3  4  2  0
  4  5  1  0
  5  6  2  0
  6  7  1  0
  6  8  1  0
  8  9  2  0
  9 10  1  0
 10 11  2  0
 10 12  1  0
 12 13  1  0
 13 14  1  0
 14 15  1  0
 14 16  1  0
  3  9  1  0
M  END
$$$$
