ver_1.2
     RDKit          3D

 13 13  0  0  0  0  0  0  0  0999 V2000
    3.7167    1.4626    1.3520 C   0  0  0  0  0  0  0  0  0  0  0  0
    3.6999    0.5839    0.3546 C   0  0  0  0  0  0  0  0  0  0  0  0
    4.9387   -0.1303   -0.1062 C   0  0  0  0  0  0  0  0  0  0  0  0
    2.4279    0.2447   -0.3840 C   0  0  0  0  0  0  0  0  0  0  0  0
    2.2384   -1.2442   -0.1732 C   0  0  0  0  0  0  0  0  0  0  0  0
    0.9693   -1.6434   -0.8965 C   0  0  0  0  0  0  0  0  0  0  0  0
   -0.1156   -0.8779   -0.3108 N   0  0  0  0  0  0  0  0  0  0  0  0
   -1.3849   -1.1669   -0.9143 C   0  0  0  0  0  0  0  0  0  0  0  0
   -2.4168   -0.3327   -0.2418 C   0  0  0  0  0  0  0  0  0  0  0  0
   -3.1670   -0.4007    0.6986 C   0  0  0  0  0  0  0  0  0  0  0  0
   -4.0235    0.4898    1.1241 N   0  0  0  0  0  0  0  0  0  0  0  0
   -4.0856    1.6237    0.4392 C   0  0  0  0  0  0  0  0  0  0  0  0
   -2.7976    1.3915   -0.9418 S   0  0  0  0  0  0  0  0  0  0  0  0
  1  2  2  0
  2  3  1  0
  2  4  1  0
  4  5  1  0
  5  6  1  0
  6  7  1  0
  7  8  1  0
  8  9  1  0
  9 10  2  0
 10 11  1  0
 11 12  2  0
 12 13  1  0
 13  9  1  0
M  END
>  <ref_url>  (1) 
https://hippo.winokan.com

>  <submitter_name>  (1) 
Max Winokan

>  <submitter_email>  (1) 
max.winokan@diamond.ac.uk

>  <submitter_institution>  (1) 
DLS

>  <generation_date>  (1) 
2025-03-19

>  <method>  (1) 
FFF_algos

>  <SLURM_JOB_ID>  (1) 
SLURM_JOB_ID

>  <SLURM_JOB_NAME>  (1) 
SLURM_JOB_NAME

>  <csv_name>  (1) 
csv_name

>  <scratch_subdir>  (1) 
scratch_subdir

>  <fragmenstein_runtime>  (1) 
fragmenstein_runtime

>  <fragmenstein_outcome>  (1) 
fragmenstein_outcome

>  <fragmenstein_mode>  (1) 
fragmenstein_mode

>  <fragmenstein_error>  (1) 
fragmenstein_error

>  <exports>  (1) 
exports

>  <score_inspiration>  (1) 
score_inspiration

>  <MoCASSIn MergeScore>  (1) 
MoCASSIn MergeScore

>  <Merging Algorithm>  (1) 
Merging Algorithm

>  <HIPPO Pose ID>  (1) 
HIPPO Pose ID

>  <HIPPO Compound ID>  (1) 
HIPPO Compound ID

>  <smiles>  (1) 
smiles

>  <ref_pdb>  (1) 
protein reference

>  <ref_mols>  (1) 
fragment inspirations

>  <original ID>  (1) 
original ID

>  <compound inchikey>  (1) 
compound inchikey

>  <distance_score>  (1) 
distance_score

>  <energy_score>  (1) 
energy_score

>  <subsites>  (1) 
subsites

$$$$
SGKXJURVPZMNDL-UHFFFAOYSA-N
     RDKit          3D

 13 13  0  0  0  0  0  0  0  0999 V2000
    6.2546   -9.6909   24.4689 C   0  0  0  0  0  0  0  0  0  0  0  0
    5.3279   -8.8487   24.0087 C   0  0  0  0  0  0  0  0  0  0  0  0
    5.7063   -7.4367   23.6951 C   0  0  0  0  0  0  0  0  0  0  0  0
    3.8887   -9.2489   23.8415 C   0  0  0  0  0  0  0  0  0  0  0  0
    3.6069  -10.3687   22.8328 C   0  0  0  0  0  0  0  0  0  0  0  0
    4.0209  -11.7939   23.2091 C   0  0  0  0  0  0  0  0  0  0  0  0
    3.3803  -12.2319   24.4433 N   0  0  0  0  0  0  0  0  0  0  0  0
    4.0227  -13.4293   24.9847 C   0  0  0  0  0  0  0  0  0  0  0  0
    3.3018  -14.0411   26.1443 C   0  0  0  0  0  0  0  0  0  0  0  0
    3.7750  -15.0431   26.9744 C   0  0  0  0  0  0  0  0  0  0  0  0
    2.9673  -15.3950   28.0358 N   0  0  0  0  0  0  0  0  0  0  0  0
    1.8651  -14.6860   27.9735 C   0  0  0  0  0  0  0  0  0  0  0  0
    1.7142  -13.6123   26.6458 S   0  0  0  0  0  0  0  0  0  0  0  0
  1  2  2  0
  2  3  1  0
  2  4  1  0
  4  5  1  0
  5  6  1  0
  6  7  1  0
  7  8  1  0
  8  9  1  0
  9 10  2  0
 10 11  1  0
 11 12  2  0
 12 13  1  0
 13  9  1  0
M  END
>  <inchikey>  (1) 
SGKXJURVPZMNDL-UHFFFAOYSA-N

>  <energy_score>  (1) 
-70.62861

>  <MoCASSIn MergeScore>  (1) 
0.521303

>  <fragmenstein_outcome>  (1) 
acceptable

>  <tags>  (1) 
BulkDock Fragalysis export;Active site iter1 merge poses;Fragmenstein placed

>  <fragmenstein_runtime>  (1) 
2.539287

>  <original ID>  (1) 
SGKXJURVPZMNDL-UHFFFAOYSA-N

>  <alias>  (1) 
None

>  <ref_mols>  (1) 
x0414a,x0502a

>  <exports>  (1) 
/opt/xchem-fragalysis-2/maxwin/BulkDock/OUTPUTS/CpKRS_iter1_knitwork_impure_split1000_batch063_302072.sdf;/opt/xchem-fragalysis-2/maxwin/BulkDock/OUTPUTS/CpKRS_iter1_knitwork_impure_fragalysis.sdf;/opt/xchem-fragalysis-2/maxwin/CpKRS_FFF/hippo/filtered_merges.sdf

>  <csv_name>  (1) 
CpKRS_iter1_knitwork_impure_split1000_batch063.csv

>  <SLURM_JOB_NAME>  (1) 
BulkDock.place:CpKRS:CpKRS_iter1_knitwork_impure_split1000_batch063

>  <name>  (1) 
SGKXJURVPZMNDL-UHFFFAOYSA-N

>  <fragmenstein_error>  (1) 
None

>  <score_inspiration>  (1) 
0.690875

>  <HIPPO Compound ID>  (1) 
5634

>  <scratch_subdir>  (1) 
/opt/xchem-fragalysis-2/maxwin/BulkDock/SCRATCH/302072/C5634-P45

>  <distance_score>  (1) 
0.982416

>  <Merging Algorithm>  (1) 
Knitwork Impure

>  <subsites>  (1) 
None

>  <original SMILES>  (1) 
C=C(C)CCCNCc1cncs1

>  <SLURM_JOB_ID>  (1) 
302072

>  <HIPPO Pose ID>  (1) 
71

>  <fragmenstein_mode>  (1) 
expansion

>  <ref_pdb>  (1) 
filtered_merges_wPDBs_SGKXJURVPZMNDL-UHFFFAOYSA-N.pdb

$$$$
XDKGUYZAHUUNJA-ZFWWWQNUSA-N
     RDKit          3D

 19 20  0  0  0  0  0  0  0  0999 V2000
    3.5041  -16.0307   28.6999 C   0  0  0  0  0  0  0  0  0  0  0  0
    2.3139  -15.8532   27.7652 C   0  0  0  0  0  0  0  0  0  0  0  0
    2.3791  -14.6553   26.8588 C   0  0  0  0  0  0  0  0  0  0  0  0
    3.7906  -14.4543   25.9709 S   0  0  0  0  0  0  0  0  0  0  0  0
    3.2717  -13.0005   25.1966 C   0  0  0  0  0  0  0  0  0  0  0  0
    4.1720  -12.2874   24.4391 N   0  0  0  0  0  0  0  0  0  0  0  0
    5.5635  -12.5789   24.7266 C   0  0  0  0  0  0  0  0  0  0  0  0
    3.9946  -11.6316   23.1334 C   0  0  1  0  0  0  0  0  0  0  0  0
    4.9948  -12.2064   22.1250 C   0  0  0  0  0  0  0  0  0  0  0  0
    2.7305  -11.9468   22.5754 O   0  0  0  0  0  0  0  0  0  0  0  0
    4.1562  -10.0768   23.1995 C   0  0  2  0  0  0  0  0  0  0  0  0
    4.7747   -9.4265   21.9542 C   0  0  0  0  0  0  0  0  0  0  0  0
    5.1808   -8.0942   22.4966 C   0  0  0  0  0  0  0  0  0  0  0  0
    5.7096   -8.4519   23.8631 C   0  0  0  0  0  0  0  0  0  0  0  0
    4.9733   -9.5991   24.2978 O   0  0  0  0  0  0  0  0  0  0  0  0
    1.9477  -12.7446   25.5215 C   0  0  0  0  0  0  0  0  0  0  0  0
    1.1428  -11.6046   24.9738 C   0  0  0  0  0  0  0  0  0  0  0  0
    1.4508  -13.6808   26.5256 C   0  0  0  0  0  0  0  0  0  0  0  0
    0.0967  -13.5701   27.1076 C   0  0  0  0  0  0  0  0  0  0  0  0
  1  2  1  0
  2  3  1  0
  3  4  1  0
  4  5  1  0
  5  6  1  0
  6  7  1  0
  6  8  1  0
  8  9  1  6
  8 10  1  0
  8 11  1  0
 11 12  1  6
 12 13  1  0
 13 14  1  0
 14 15  1  0
  5 16  2  0
 16 17  1  0
 16 18  1  0
 18 19  1  0
 18  3  2  0
 15 11  1  0
M  END
>  <inchikey>  (2) 
XDKGUYZAHUUNJA-ZFWWWQNUSA-N

>  <energy_score>  (2) 
-51.84322

>  <MoCASSIn MergeScore>  (2) 
0.452784

>  <fragmenstein_outcome>  (2) 
acceptable

>  <tags>  (2) 
BulkDock Fragalysis export;Active site iter1 merge poses;Fragmenstein placed

>  <fragmenstein_runtime>  (2) 
3.061496

>  <original ID>  (2) 
XDKGUYZAHUUNJA-ZFWWWQNUSA-N

>  <alias>  (2) 
None

>  <ref_mols>  (2) 
x0407a,x0502c

>  <exports>  (2) 
/opt/xchem-fragalysis-2/maxwin/BulkDock/OUTPUTS/CpKRS_iter1_fstein_split1000_batch000_302134.sdf;/opt/xchem-fragalysis-2/maxwin/BulkDock/OUTPUTS/CpKRS_iter1_fstein_fragalysis.sdf;/opt/xchem-fragalysis-2/maxwin/CpKRS_FFF/hippo/filtered_merges.sdf

>  <csv_name>  (2) 
CpKRS_iter1_fstein_split1000_batch000.csv

>  <SLURM_JOB_NAME>  (2) 
BulkDock.place:CpKRS:CpKRS_iter1_fstein_split1000_batch000

>  <name>  (2) 
XDKGUYZAHUUNJA-ZFWWWQNUSA-N

>  <fragmenstein_error>  (2) 
None

>  <score_inspiration>  (2) 
0.503823

>  <HIPPO Compound ID>  (2) 
15824

>  <scratch_subdir>  (2) 
/opt/xchem-fragalysis-2/maxwin/BulkDock/SCRATCH/302134/C15824-P46

>  <distance_score>  (2) 
0.785982

>  <Merging Algorithm>  (2) 
Fragmenstein

>  <subsites>  (2) 
None

>  <original SMILES>  (2) 
CCc1sc(N(C)[C@@](C)(O)[C@@H]2CCCO2)c(C)c1C

>  <SLURM_JOB_ID>  (2) 
302134

>  <HIPPO Pose ID>  (2) 
933

>  <fragmenstein_mode>  (2) 
expansion

>  <ref_pdb>  (2) 
filtered_merges_wPDBs_XDKGUYZAHUUNJA-ZFWWWQNUSA-N.pdb

$$$$
JFZUNXKFXXGVGT-UHFFFAOYSA-N
     RDKit          3D

 18 19  0  0  0  0  0  0  0  0999 V2000
    0.5303  -11.8059   25.4637 C   0  0  0  0  0  0  0  0  0  0  0  0
    1.3724  -12.6799   24.7256 O   0  0  0  0  0  0  0  0  0  0  0  0
    2.1861  -13.4207   25.5966 N   0  0  0  0  0  0  0  0  0  0  0  0
    1.6379  -14.1142   26.6115 N   0  0  0  0  0  0  0  0  0  0  0  0
    2.6753  -14.8235   27.0658 C   0  0  0  0  0  0  0  0  0  0  0  0
    2.5565  -15.8520   28.4074 Cl  0  0  0  0  0  0  0  0  0  0  0  0
    3.8537  -14.5756   26.3579 C   0  0  0  0  0  0  0  0  0  0  0  0
    3.5241  -13.6103   25.4197 C   0  0  0  0  0  0  0  0  0  0  0  0
    4.4340  -12.9757   24.4841 C   0  0  0  0  0  0  0  0  0  0  0  0
    5.5470  -13.3051   24.5085 O   0  0  0  0  0  0  0  0  0  0  0  0
    3.7303  -11.9256   23.6248 N   0  0  0  0  0  0  0  0  0  0  0  0
    4.2601  -10.9901   22.6788 C   0  0  0  0  0  0  0  0  0  0  0  0
    4.7263   -9.7473   23.3732 C   0  0  0  0  0  0  0  0  0  0  0  0
    4.3658   -9.3365   24.5767 N   0  0  0  0  0  0  0  0  0  0  0  0
    5.1108   -8.2288   24.9455 C   0  0  0  0  0  0  0  0  0  0  0  0
    4.9185   -7.6605   26.3029 C   0  0  0  0  0  0  0  0  0  0  0  0
    5.9828   -7.7752   23.9778 C   0  0  0  0  0  0  0  0  0  0  0  0
    5.8156   -8.7077   22.5511 S   0  0  0  0  0  0  0  0  0  0  0  0
  1  2  1  0
  2  3  1  0
  3  4  1  0
  4  5  2  0
  5  6  1  0
  5  7  1  0
  7  8  2  0
  8  9  1  0
  9 10  2  0
  9 11  1  0
 11 12  1  0
 12 13  1  0
 13 14  2  0
 14 15  1  0
 15 16  1  0
 15 17  2  0
 17 18  1  0
  8  3  1  0
 18 13  1  0
M  END
>  <inchikey>  (3) 
JFZUNXKFXXGVGT-UHFFFAOYSA-N

>  <energy_score>  (3) 
-50.064913

>  <MoCASSIn MergeScore>  (3) 
0.687475

>  <fragmenstein_outcome>  (3) 
acceptable

>  <tags>  (3) 
BulkDock Fragalysis export;Active site iter1 merge poses;Fragmenstein placed

>  <fragmenstein_runtime>  (3) 
2.628701

>  <original ID>  (3) 
JFZUNXKFXXGVGT-UHFFFAOYSA-N

>  <alias>  (3) 
None

>  <ref_mols>  (3) 
x0555a,x0646a

>  <exports>  (3) 
/opt/xchem-fragalysis-2/maxwin/BulkDock/OUTPUTS/CpKRS_iter1_fstein_split1000_batch001_302135.sdf;/opt/xchem-fragalysis-2/maxwin/BulkDock/OUTPUTS/CpKRS_iter1_fstein_fragalysis.sdf;/opt/xchem-fragalysis-2/maxwin/CpKRS_FFF/hippo/filtered_merges.sdf

>  <csv_name>  (3) 
CpKRS_iter1_fstein_split1000_batch001.csv

>  <SLURM_JOB_NAME>  (3) 
BulkDock.place:CpKRS:CpKRS_iter1_fstein_split1000_batch001

>  <name>  (3) 
JFZUNXKFXXGVGT-UHFFFAOYSA-N

>  <fragmenstein_error>  (3) 
None

>  <score_inspiration>  (3) 
0.681642

>  <HIPPO Compound ID>  (3) 
24475

>  <scratch_subdir>  (3) 
/opt/xchem-fragalysis-2/maxwin/BulkDock/SCRATCH/302135/C24475-P38

>  <distance_score>  (3) 
0.759218

>  <Merging Algorithm>  (3) 
Fragmenstein

>  <subsites>  (3) 
None

>  <original SMILES>  (3) 
COn1nc(Cl)cc1C(=O)NCc1nc(C)cs1

>  <SLURM_JOB_ID>  (3) 
302135

>  <HIPPO Pose ID>  (3) 
1929

>  <fragmenstein_mode>  (3) 
expansion

>  <ref_pdb>  (3) 
filtered_merges_wPDBs_JFZUNXKFXXGVGT-UHFFFAOYSA-N.pdb

$$$$
AILIHNDUZGKEFC-GFCCVEGCSA-N
     RDKit          3D

 16 16  0  0  0  0  0  0  0  0999 V2000
    7.2617   -6.9790   24.6795 C   0  0  0  0  0  0  0  0  0  0  0  0
    6.1465   -7.4040   24.6500 C   0  0  0  0  0  0  0  0  0  0  0  0
    4.8124   -7.9615   24.6717 C   0  0  0  0  0  0  0  0  0  0  0  0
    4.8103   -9.3094   23.9957 C   0  0  0  0  0  0  0  0  0  0  0  0
    3.4000   -9.8687   24.0225 C   0  0  0  0  0  0  0  0  0  0  0  0
    3.3491  -11.0974   23.1454 C   0  0  0  0  0  0  0  0  0  0  0  0
    2.1653  -12.0110   23.4656 C   0  0  0  0  0  0  0  0  0  0  0  0
    2.1948  -12.6782   24.7702 N   0  0  0  0  0  0  0  0  0  0  0  0
    3.5214  -13.2081   25.1611 C   0  0  2  0  0  0  0  0  0  0  0  0
    4.3718  -13.8406   24.0535 C   0  0  0  0  0  0  0  0  0  0  0  0
    3.5136  -14.1798   26.3274 C   0  0  0  0  0  0  0  0  0  0  0  0
    2.3819  -14.4971   27.0739 C   0  0  0  0  0  0  0  0  0  0  0  0
    2.3951  -15.3617   28.1263 N   0  0  0  0  0  0  0  0  0  0  0  0
    3.5986  -15.9335   28.3506 C   0  0  0  0  0  0  0  0  0  0  0  0
    4.7250  -15.6311   27.6174 C   0  0  0  0  0  0  0  0  0  0  0  0
    4.7186  -14.7354   26.6268 N   0  0  0  0  0  0  0  0  0  0  0  0
  1  2  3  0
  2  3  1  0
  3  4  1  0
  4  5  1  0
  5  6  1  0
  6  7  1  0
  7  8  1  0
  8  9  1  0
  9 10  1  6
  9 11  1  0
 11 12  2  0
 12 13  1  0
 13 14  2  0
 14 15  1  0
 15 16  2  0
 16 11  1  0
M  END
>  <inchikey>  (4) 
AILIHNDUZGKEFC-GFCCVEGCSA-N

>  <energy_score>  (4) 
-3.232312

>  <MoCASSIn MergeScore>  (4) 
0.461189

>  <fragmenstein_outcome>  (4) 
acceptable

>  <tags>  (4) 
BulkDock Fragalysis export;Active site iter1 merge poses;Fragmenstein placed

>  <fragmenstein_runtime>  (4) 
5.568801

>  <original ID>  (4) 
AILIHNDUZGKEFC-GFCCVEGCSA-N

>  <alias>  (4) 
None

>  <ref_mols>  (4) 
x0414a,x0489a

>  <exports>  (4) 
/opt/xchem-fragalysis-2/maxwin/BulkDock/OUTPUTS/CpKRS_iter1_knitwork_impure_split1000_batch050_302059.sdf;/opt/xchem-fragalysis-2/maxwin/BulkDock/OUTPUTS/CpKRS_iter1_knitwork_impure_fragalysis.sdf;/opt/xchem-fragalysis-2/maxwin/CpKRS_FFF/hippo/filtered_merges.sdf

>  <csv_name>  (4) 
CpKRS_iter1_knitwork_impure_split1000_batch050.csv

>  <SLURM_JOB_NAME>  (4) 
BulkDock.place:CpKRS:CpKRS_iter1_knitwork_impure_split1000_batch050

>  <name>  (4) 
AILIHNDUZGKEFC-GFCCVEGCSA-N

>  <fragmenstein_error>  (4) 
None

>  <score_inspiration>  (4) 
0.60137

>  <HIPPO Compound ID>  (4) 
17975

>  <scratch_subdir>  (4) 
/opt/xchem-fragalysis-2/maxwin/BulkDock/SCRATCH/302059/C17975-P33

>  <distance_score>  (4) 
0.99605

>  <Merging Algorithm>  (4) 
Knitwork Impure

>  <subsites>  (4) 
None

>  <original SMILES>  (4) 
C#CCCCCCN[C@H](C)c1cnccn1

>  <SLURM_JOB_ID>  (4) 
302059

>  <HIPPO Pose ID>  (4) 
3145

>  <fragmenstein_mode>  (4) 
expansion

>  <ref_pdb>  (4) 
filtered_merges_wPDBs_AILIHNDUZGKEFC-GFCCVEGCSA-N.pdb

$$$$
OJNTXHVEMHQKMP-ZDUSSCGKSA-N
     RDKit          3D

 13 13  0  0  0  0  0  0  0  0999 V2000
    5.3896   -7.9673   25.8165 C   0  0  0  0  0  0  0  0  0  0  0  0
    5.7180   -8.7750   24.2394 S   0  0  0  0  0  0  0  0  0  0  0  0
    5.9870   -7.5682   23.1402 O   0  0  0  0  0  0  0  0  0  0  0  0
    4.0228   -9.3808   23.9788 C   0  0  0  0  0  0  0  0  0  0  0  0
    3.9558  -10.3931   22.8388 C   0  0  0  0  0  0  0  0  0  0  0  0
    4.4746  -11.7761   23.2331 C   0  0  0  0  0  0  0  0  0  0  0  0
    3.6497  -12.2958   24.3179 N   0  0  0  0  0  0  0  0  0  0  0  0
    4.2749  -13.4546   24.9716 C   0  0  0  0  0  0  0  0  0  0  0  0
    3.4752  -14.0548   26.1035 C   0  0  0  0  0  0  0  0  0  0  0  0
    3.9769  -14.9482   26.9361 N   0  0  0  0  0  0  0  0  0  0  0  0
    3.0430  -15.2793   27.8893 C   0  0  0  0  0  0  0  0  0  0  0  0
    1.8441  -14.6113   27.8076 C   0  0  0  0  0  0  0  0  0  0  0  0
    1.8344  -13.6080   26.4227 S   0  0  0  0  0  0  0  0  0  0  0  0
  2  1  1  1
  2  3  1  0
  2  4  1  0
  4  5  1  0
  5  6  1  0
  6  7  1  0
  7  8  1  0
  8  9  1  0
  9 10  2  0
 10 11  1  0
 11 12  2  0
 12 13  1  0
 13  9  1  0
M  CHG  2   2   1   3  -1
M  END
>  <inchikey>  (5) 
OJNTXHVEMHQKMP-ZDUSSCGKSA-N

>  <energy_score>  (5) 
-70.631177

>  <MoCASSIn MergeScore>  (5) 
0.504707

>  <fragmenstein_outcome>  (5) 
acceptable

>  <tags>  (5) 
BulkDock Fragalysis export;Active site iter1 merge poses;Fragmenstein placed

>  <fragmenstein_runtime>  (5) 
1.884012

>  <original ID>  (5) 
OJNTXHVEMHQKMP-ZDUSSCGKSA-N

>  <alias>  (5) 
None

>  <ref_mols>  (5) 
x0414a,x0502a

>  <exports>  (5) 
/opt/xchem-fragalysis-2/maxwin/BulkDock/OUTPUTS/CpKRS_iter1_knitwork_impure_split1000_batch062_302071.sdf;/opt/xchem-fragalysis-2/maxwin/BulkDock/OUTPUTS/CpKRS_iter1_knitwork_impure_fragalysis.sdf;/opt/xchem-fragalysis-2/maxwin/CpKRS_FFF/hippo/filtered_merges.sdf

>  <csv_name>  (5) 
CpKRS_iter1_knitwork_impure_split1000_batch062.csv

>  <SLURM_JOB_NAME>  (5) 
BulkDock.place:CpKRS:CpKRS_iter1_knitwork_impure_split1000_batch062

>  <name>  (5) 
OJNTXHVEMHQKMP-ZDUSSCGKSA-N

>  <fragmenstein_error>  (5) 
None

>  <score_inspiration>  (5) 
0.672156

>  <HIPPO Compound ID>  (5) 
5573

>  <scratch_subdir>  (5) 
/opt/xchem-fragalysis-2/maxwin/BulkDock/SCRATCH/302071/C5573-P45

>  <distance_score>  (5) 
0.942874

>  <Merging Algorithm>  (5) 
Knitwork Impure

>  <subsites>  (5) 
None

>  <original SMILES>  (5) 
C[S@+]([O-])CCCNCc1nccs1

>  <SLURM_JOB_ID>  (5) 
302071

>  <HIPPO Pose ID>  (5) 
3178

>  <fragmenstein_mode>  (5) 
expansion

>  <ref_pdb>  (5) 
filtered_merges_wPDBs_OJNTXHVEMHQKMP-ZDUSSCGKSA-N.pdb

$$$$
YBYXPPITNHSSRB-BQBZGAKWSA-N
     RDKit          3D

 17 18  0  0  0  0  0  0  0  0999 V2000
    5.6963   -8.3474   24.7463 C   0  0  0  0  0  0  0  0  0  0  0  0
    4.7131   -9.1413   23.8987 C   0  0  1  0  0  0  0  0  0  0  0  0
    4.6618   -8.5535   22.4825 C   0  0  0  0  0  0  0  0  0  0  0  0
    5.3413   -9.5739   21.5908 C   0  0  0  0  0  0  0  0  0  0  0  0
    5.0200  -10.8986   22.2455 C   0  0  0  0  0  0  0  0  0  0  0  0
    5.1534  -10.6081   23.7332 C   0  0  2  0  0  0  0  0  0  0  0  0
    4.3828  -11.5686   24.4722 N   0  0  0  0  0  0  0  0  0  0  0  0
    4.8101  -12.8809   25.1561 C   0  0  0  0  0  0  0  0  0  0  0  0
    5.8666  -13.3507   25.2940 O   0  0  0  0  0  0  0  0  0  0  0  0
    3.5919  -13.5329   25.6837 C   0  0  0  0  0  0  0  0  0  0  0  0
    2.3690  -12.9967   25.4290 N   0  0  0  0  0  0  0  0  0  0  0  0
    1.5275  -13.8344   26.0635 N   0  0  0  0  0  0  0  0  0  0  0  0
    0.1061  -13.6478   25.9508 C   0  0  0  0  0  0  0  0  0  0  0  0
    2.1525  -14.8146   26.7626 C   0  0  0  0  0  0  0  0  0  0  0  0
    1.5652  -15.7257   27.5512 F   0  0  0  0  0  0  0  0  0  0  0  0
    3.4906  -14.6936   26.5017 C   0  0  0  0  0  0  0  0  0  0  0  0
    4.7365  -15.6847   27.0806 Cl  0  0  0  0  0  0  0  0  0  0  0  0
  2  1  1  1
  2  3  1  0
  3  4  1  0
  4  5  1  0
  5  6  1  0
  6  7  1  1
  7  8  1  0
  8  9  2  0
  8 10  1  0
 10 11  2  0
 11 12  1  0
 12 13  1  0
 12 14  1  0
 14 15  1  0
 14 16  2  0
 16 17  1  0
  6  2  1  0
 16 10  1  0
M  END
>  <inchikey>  (6) 
YBYXPPITNHSSRB-BQBZGAKWSA-N

>  <energy_score>  (6) 
-15.160854

>  <MoCASSIn MergeScore>  (6) 
0.994016

>  <fragmenstein_outcome>  (6) 
acceptable

>  <tags>  (6) 
BulkDock Fragalysis export;Active site iter1 merge poses;Fragmenstein placed

>  <fragmenstein_runtime>  (6) 
3.341297

>  <original ID>  (6) 
YBYXPPITNHSSRB-BQBZGAKWSA-N

>  <alias>  (6) 
None

>  <ref_mols>  (6) 
x0421b,x0421c,x0759a

>  <exports>  (6) 
/opt/xchem-fragalysis-2/maxwin/BulkDock/OUTPUTS/CpKRS_iter1_fstein_split1000_batch000_302134.sdf;/opt/xchem-fragalysis-2/maxwin/BulkDock/OUTPUTS/CpKRS_iter1_fstein_fragalysis.sdf;/opt/xchem-fragalysis-2/maxwin/CpKRS_FFF/hippo/filtered_merges.sdf

>  <csv_name>  (6) 
CpKRS_iter1_fstein_split1000_batch000.csv

>  <SLURM_JOB_NAME>  (6) 
BulkDock.place:CpKRS:CpKRS_iter1_fstein_split1000_batch000

>  <name>  (6) 
YBYXPPITNHSSRB-BQBZGAKWSA-N

>  <fragmenstein_error>  (6) 
None

>  <score_inspiration>  (6) 
0.771263

>  <HIPPO Compound ID>  (6) 
15927

>  <scratch_subdir>  (6) 
/opt/xchem-fragalysis-2/maxwin/BulkDock/SCRATCH/302134/C15927-P62

>  <distance_score>  (6) 
0.764129

>  <Merging Algorithm>  (6) 
Fragmenstein

>  <subsites>  (6) 
None

>  <original SMILES>  (6) 
C[C@H]1CCC[C@@H]1NC(=O)c1nn(C)c(F)c1Cl

>  <SLURM_JOB_ID>  (6) 
302134

>  <HIPPO Pose ID>  (6) 
4194

>  <fragmenstein_mode>  (6) 
expansion

>  <ref_pdb>  (6) 
filtered_merges_wPDBs_YBYXPPITNHSSRB-BQBZGAKWSA-N.pdb

$$$$
PUCGSYGSCVVRIO-UHFFFAOYSA-N
     RDKit          3D

 15 15  0  0  0  0  0  0  0  0999 V2000
    5.1842   -7.5565   23.5634 C   0  0  0  0  0  0  0  0  0  0  0  0
    5.1144   -9.0726   23.5131 C   0  0  0  0  0  0  0  0  0  0  0  0
    6.0153   -9.5918   24.6090 C   0  0  0  0  0  0  0  0  0  0  0  0
    5.5564   -9.5301   22.1225 C   0  0  0  0  0  0  0  0  0  0  0  0
    3.3926   -9.5735   23.9046 S   0  0  0  0  0  0  0  0  0  0  0  0
    3.3567  -11.2330   23.1689 C   0  0  0  0  0  0  0  0  0  0  0  0
    2.1074  -12.0385   23.5577 C   0  0  0  0  0  0  0  0  0  0  0  0
    2.1006  -12.6896   24.8784 N   0  0  0  0  0  0  0  0  0  0  0  0
    3.3751  -13.3777   25.1212 C   0  0  0  0  0  0  0  0  0  0  0  0
    3.4519  -14.3064   26.2933 C   0  0  0  0  0  0  0  0  0  0  0  0
    2.4268  -14.5035   27.2158 C   0  0  0  0  0  0  0  0  0  0  0  0
    2.5334  -15.3337   28.2883 N   0  0  0  0  0  0  0  0  0  0  0  0
    3.7369  -15.9378   28.3937 C   0  0  0  0  0  0  0  0  0  0  0  0
    4.7642  -15.7290   27.4926 C   0  0  0  0  0  0  0  0  0  0  0  0
    4.6506  -14.9242   26.4305 N   0  0  0  0  0  0  0  0  0  0  0  0
  1  2  1  0
  2  3  1  0
  2  4  1  0
  2  5  1  0
  5  6  1  0
  6  7  1  0
  7  8  1  0
  8  9  1  0
  9 10  1  0
 10 11  2  0
 11 12  1  0
 12 13  2  0
 13 14  1  0
 14 15  2  0
 15 10  1  0
M  END
>  <inchikey>  (7) 
PUCGSYGSCVVRIO-UHFFFAOYSA-N

>  <energy_score>  (7) 
-39.649198

>  <MoCASSIn MergeScore>  (7) 
0.521629

>  <fragmenstein_outcome>  (7) 
acceptable

>  <tags>  (7) 
BulkDock Fragalysis export;Active site iter1 merge poses;Fragmenstein placed

>  <fragmenstein_runtime>  (7) 
21.308496

>  <original ID>  (7) 
PUCGSYGSCVVRIO-UHFFFAOYSA-N

>  <alias>  (7) 
None

>  <ref_mols>  (7) 
x0414a,x0489a

>  <exports>  (7) 
/opt/xchem-fragalysis-2/maxwin/BulkDock/OUTPUTS/CpKRS_iter1_knitwork_impure_split1000_batch050_302059.sdf;/opt/xchem-fragalysis-2/maxwin/BulkDock/OUTPUTS/CpKRS_iter1_knitwork_impure_fragalysis.sdf;/opt/xchem-fragalysis-2/maxwin/CpKRS_FFF/hippo/filtered_merges.sdf

>  <csv_name>  (7) 
CpKRS_iter1_knitwork_impure_split1000_batch050.csv

>  <SLURM_JOB_NAME>  (7) 
BulkDock.place:CpKRS:CpKRS_iter1_knitwork_impure_split1000_batch050

>  <name>  (7) 
PUCGSYGSCVVRIO-UHFFFAOYSA-N

>  <fragmenstein_error>  (7) 
None

>  <score_inspiration>  (7) 
0.66629

>  <HIPPO Compound ID>  (7) 
17993

>  <scratch_subdir>  (7) 
/opt/xchem-fragalysis-2/maxwin/BulkDock/SCRATCH/302059/C17993-P33

>  <distance_score>  (7) 
0.746911

>  <Merging Algorithm>  (7) 
Knitwork Impure

>  <subsites>  (7) 
None

>  <original SMILES>  (7) 
CC(C)(C)SCCNCc1cnccn1

>  <SLURM_JOB_ID>  (7) 
302059

>  <HIPPO Pose ID>  (7) 
4534

>  <fragmenstein_mode>  (7) 
expansion

>  <ref_pdb>  (7) 
filtered_merges_wPDBs_PUCGSYGSCVVRIO-UHFFFAOYSA-N.pdb

$$$$
NRSJBZYWOZHGJJ-VIFPVBQESA-N
     RDKit          3D

 18 19  0  0  0  0  0  0  0  0999 V2000
    1.9386  -12.3138   24.0480 C   0  0  0  0  0  0  0  0  0  0  0  0
    3.4468  -12.2541   24.3179 C   0  0  1  0  0  0  0  0  0  0  0  0
    4.0625  -13.4378   25.0973 C   0  0  0  0  0  0  0  0  0  0  0  0
    3.3502  -13.9405   26.3229 C   0  0  0  0  0  0  0  0  0  0  0  0
    3.9009  -14.9894   27.0640 C   0  0  0  0  0  0  0  0  0  0  0  0
    3.3959  -15.4153   28.2525 N   0  0  0  0  0  0  0  0  0  0  0  0
    2.2662  -14.7871   28.6319 C   0  0  0  0  0  0  0  0  0  0  0  0
    1.6813  -13.7885   27.8779 C   0  0  0  0  0  0  0  0  0  0  0  0
    2.2100  -13.3321   26.7267 N   0  0  0  0  0  0  0  0  0  0  0  0
    4.1459  -12.1054   23.0083 N   0  0  0  0  0  0  0  0  0  0  0  0
    4.6827  -10.8333   22.8194 C   0  0  0  0  0  0  0  0  0  0  0  0
    5.6332  -10.3275   23.6688 C   0  0  0  0  0  0  0  0  0  0  0  0
    5.9668   -8.9959   23.5382 C   0  0  0  0  0  0  0  0  0  0  0  0
    6.7206   -8.3177   24.6281 C   0  0  0  0  0  0  0  0  0  0  0  0
    5.7935   -8.0330   25.6692 O   0  0  0  0  0  0  0  0  0  0  0  0
    5.4678   -8.2166   22.5747 N   0  0  0  0  0  0  0  0  0  0  0  0
    4.6248   -8.8394   21.7499 C   0  0  0  0  0  0  0  0  0  0  0  0
    4.1888  -10.0991   21.8302 N   0  0  0  0  0  0  0  0  0  0  0  0
  2  1  1  6
  2  3  1  0
  3  4  1  0
  4  5  2  0
  5  6  1  0
  6  7  2  0
  7  8  1  0
  8  9  2  0
  2 10  1  0
 10 11  1  0
 11 12  2  0
 12 13  1  0
 13 14  1  0
 14 15  1  0
 13 16  2  0
 16 17  1  0
 17 18  2  0
  9  4  1  0
 18 11  1  0
M  END
>  <inchikey>  (8) 
NRSJBZYWOZHGJJ-VIFPVBQESA-N

>  <energy_score>  (8) 
-12.302349

>  <MoCASSIn MergeScore>  (8) 
0.425071

>  <fragmenstein_outcome>  (8) 
acceptable

>  <tags>  (8) 
BulkDock Fragalysis export;Active site iter1 merge poses;Fragmenstein placed

>  <fragmenstein_runtime>  (8) 
2.250591

>  <original ID>  (8) 
NRSJBZYWOZHGJJ-VIFPVBQESA-N

>  <alias>  (8) 
None

>  <ref_mols>  (8) 
x0414a,x0492b

>  <exports>  (8) 
/opt/xchem-fragalysis-2/maxwin/BulkDock/OUTPUTS/CpKRS_iter1_knitwork_pure_split1000_batch009_301900.sdf;/opt/xchem-fragalysis-2/maxwin/BulkDock/OUTPUTS/CpKRS_iter1_knitwork_pure_fragalysis.sdf;/opt/xchem-fragalysis-2/maxwin/CpKRS_FFF/hippo/filtered_merges.sdf

>  <csv_name>  (8) 
CpKRS_iter1_knitwork_pure_split1000_batch009.csv

>  <SLURM_JOB_NAME>  (8) 
BulkDock.place:CpKRS:CpKRS_iter1_knitwork_pure_split1000_batch009

>  <name>  (8) 
NRSJBZYWOZHGJJ-VIFPVBQESA-N

>  <fragmenstein_error>  (8) 
None

>  <score_inspiration>  (8) 
0.532718

>  <HIPPO Compound ID>  (8) 
1083

>  <scratch_subdir>  (8) 
/opt/xchem-fragalysis-2/maxwin/BulkDock/SCRATCH/301900/C1083-P35

>  <distance_score>  (8) 
0.902777

>  <Merging Algorithm>  (8) 
Knitwork Pure

>  <subsites>  (8) 
None

>  <original SMILES>  (8) 
C[C@@H](Cc1cnccn1)Nc1cc(CO)ncn1

>  <SLURM_JOB_ID>  (8) 
301900

>  <HIPPO Pose ID>  (8) 
5256

>  <fragmenstein_mode>  (8) 
expansion

>  <ref_pdb>  (8) 
filtered_merges_wPDBs_NRSJBZYWOZHGJJ-VIFPVBQESA-N.pdb

$$$$
LPSMHLQTTQNKAM-UHFFFAOYSA-N
     RDKit          3D

 15 15  0  0  0  0  0  0  0  0999 V2000
    4.7779   -9.7568   21.7486 C   0  0  0  0  0  0  0  0  0  0  0  0
    4.1667  -10.4003   23.0064 C   0  0  0  0  0  0  0  0  0  0  0  0
    2.7902   -9.7724   23.3102 C   0  0  0  0  0  0  0  0  0  0  0  0
    4.0325  -11.9420   22.8149 C   0  0  0  0  0  0  0  0  0  0  0  0
    3.2817  -12.6067   23.8844 N   0  0  0  0  0  0  0  0  0  0  0  0
    4.1313  -13.3275   24.8393 C   0  0  0  0  0  0  0  0  0  0  0  0
    3.3652  -13.9522   25.9683 C   0  0  0  0  0  0  0  0  0  0  0  0
    3.7841  -14.9855   26.7899 C   0  0  0  0  0  0  0  0  0  0  0  0
    2.9476  -15.3182   27.8361 N   0  0  0  0  0  0  0  0  0  0  0  0
    1.8817  -14.5563   27.7779 C   0  0  0  0  0  0  0  0  0  0  0  0
    1.8022  -13.4426   26.4779 S   0  0  0  0  0  0  0  0  0  0  0  0
    5.0969  -10.1381   24.1877 C   0  0  0  0  0  0  0  0  0  0  0  0
    5.4368   -8.6995   24.4564 C   0  0  0  0  0  0  0  0  0  0  0  0
    6.1282   -8.6927   25.6156 F   0  0  0  0  0  0  0  0  0  0  0  0
    6.2623   -8.1867   23.5186 F   0  0  0  0  0  0  0  0  0  0  0  0
  1  2  1  0
  2  3  1  0
  2  4  1  0
  4  5  1  0
  5  6  1  0
  6  7  1  0
  7  8  2  0
  8  9  1  0
  9 10  2  0
 10 11  1  0
  2 12  1  0
 12 13  1  0
 13 14  1  0
 13 15  1  0
 11  7  1  0
M  END
>  <inchikey>  (9) 
LPSMHLQTTQNKAM-UHFFFAOYSA-N

>  <energy_score>  (9) 
-52.91549

>  <MoCASSIn MergeScore>  (9) 
0.605249

>  <fragmenstein_outcome>  (9) 
acceptable

>  <tags>  (9) 
BulkDock Fragalysis export;Active site iter1 merge poses;Fragmenstein placed

>  <fragmenstein_runtime>  (9) 
5.860484

>  <original ID>  (9) 
LPSMHLQTTQNKAM-UHFFFAOYSA-N

>  <alias>  (9) 
None

>  <ref_mols>  (9) 
x0414a,x0502a

>  <exports>  (9) 
/opt/xchem-fragalysis-2/maxwin/BulkDock/OUTPUTS/CpKRS_iter1_knitwork_impure_split1000_batch062_302071.sdf;/opt/xchem-fragalysis-2/maxwin/BulkDock/OUTPUTS/CpKRS_iter1_knitwork_impure_fragalysis.sdf;/opt/xchem-fragalysis-2/maxwin/CpKRS_FFF/hippo/filtered_merges.sdf

>  <csv_name>  (9) 
CpKRS_iter1_knitwork_impure_split1000_batch062.csv

>  <SLURM_JOB_NAME>  (9) 
BulkDock.place:CpKRS:CpKRS_iter1_knitwork_impure_split1000_batch062

>  <name>  (9) 
LPSMHLQTTQNKAM-UHFFFAOYSA-N

>  <fragmenstein_error>  (9) 
None

>  <score_inspiration>  (9) 
0.751319

>  <HIPPO Compound ID>  (9) 
5633

>  <scratch_subdir>  (9) 
/opt/xchem-fragalysis-2/maxwin/BulkDock/SCRATCH/302071/C5633-P45

>  <distance_score>  (9) 
0.799958

>  <Merging Algorithm>  (9) 
Knitwork Impure

>  <subsites>  (9) 
None

>  <original SMILES>  (9) 
CC(C)(CNCc1cncs1)CC(F)F

>  <SLURM_JOB_ID>  (9) 
302071

>  <HIPPO Pose ID>  (9) 
5492

>  <fragmenstein_mode>  (9) 
expansion

>  <ref_pdb>  (9) 
filtered_merges_wPDBs_LPSMHLQTTQNKAM-UHFFFAOYSA-N.pdb

$$$$
OJNTXHVEMHQKMP-ZDUSSCGKSA-N
     RDKit          3D

 13 13  0  0  0  0  0  0  0  0999 V2000
    5.2610   -8.1432   21.7897 C   0  0  0  0  0  0  0  0  0  0  0  0
    4.9711   -8.2290   23.5661 S   0  0  0  0  0  0  0  0  0  0  0  0
    6.4280   -8.2663   24.3358 O   0  0  0  0  0  0  0  0  0  0  0  0
    4.2109   -9.8550   23.6099 C   0  0  0  0  0  0  0  0  0  0  0  0
    5.1782  -10.9649   23.2447 C   0  0  0  0  0  0  0  0  0  0  0  0
    4.4381  -12.2467   22.9052 C   0  0  0  0  0  0  0  0  0  0  0  0
    3.5325  -12.6546   23.9715 N   0  0  0  0  0  0  0  0  0  0  0  0
    4.2531  -13.3895   25.0306 C   0  0  0  0  0  0  0  0  0  0  0  0
    3.3710  -13.9423   26.1209 C   0  0  0  0  0  0  0  0  0  0  0  0
    3.7702  -14.8856   26.9524 N   0  0  0  0  0  0  0  0  0  0  0  0
    2.7955  -15.1289   27.8901 C   0  0  0  0  0  0  0  0  0  0  0  0
    1.6613  -14.3595   27.7788 C   0  0  0  0  0  0  0  0  0  0  0  0
    1.7681  -13.3596   26.3968 S   0  0  0  0  0  0  0  0  0  0  0  0
  2  1  1  6
  2  3  1  0
  2  4  1  0
  4  5  1  0
  5  6  1  0
  6  7  1  0
  7  8  1  0
  8  9  1  0
  9 10  2  0
 10 11  1  0
 11 12  2  0
 12 13  1  0
 13  9  1  0
M  CHG  2   2   1   3  -1
M  END
>  <inchikey>  (10) 
OJNTXHVEMHQKMP-ZDUSSCGKSA-N

>  <energy_score>  (10) 
-67.471716

>  <MoCASSIn MergeScore>  (10) 
0.510684

>  <fragmenstein_outcome>  (10) 
acceptable

>  <tags>  (10) 
BulkDock Fragalysis export;Active site iter1 merge poses;Fragmenstein placed

>  <fragmenstein_runtime>  (10) 
1.736966

>  <original ID>  (10) 
OJNTXHVEMHQKMP-ZDUSSCGKSA-N

>  <alias>  (10) 
None

>  <ref_mols>  (10) 
x0414a,x0502c

>  <exports>  (10) 
/opt/xchem-fragalysis-2/maxwin/BulkDock/OUTPUTS/CpKRS_iter1_knitwork_impure_split1000_batch071_302080.sdf;/opt/xchem-fragalysis-2/maxwin/BulkDock/OUTPUTS/CpKRS_iter1_knitwork_impure_fragalysis.sdf;/opt/xchem-fragalysis-2/maxwin/CpKRS_FFF/hippo/filtered_merges.sdf

>  <csv_name>  (10) 
CpKRS_iter1_knitwork_impure_split1000_batch071.csv

>  <SLURM_JOB_NAME>  (10) 
BulkDock.place:CpKRS:CpKRS_iter1_knitwork_impure_split1000_batch071

>  <name>  (10) 
OJNTXHVEMHQKMP-ZDUSSCGKSA-N

>  <fragmenstein_error>  (10) 
None

>  <score_inspiration>  (10) 
0.679069

>  <HIPPO Compound ID>  (10) 
5573

>  <scratch_subdir>  (10) 
/opt/xchem-fragalysis-2/maxwin/BulkDock/SCRATCH/302080/C5573-P46

>  <distance_score>  (10) 
0.988228

>  <Merging Algorithm>  (10) 
Knitwork Impure

>  <subsites>  (10) 
None

>  <original SMILES>  (10) 
C[S@+]([O-])CCCNCc1nccs1

>  <SLURM_JOB_ID>  (10) 
302080

>  <HIPPO Pose ID>  (10) 
5666

>  <fragmenstein_mode>  (10) 
expansion

>  <ref_pdb>  (10) 
filtered_merges_wPDBs_OJNTXHVEMHQKMP-ZDUSSCGKSA-N.pdb

$$$$
RCZKUPNPRYZQDW-ZIBATOQPSA-N
     RDKit          3D

 22 25  0  0  0  0  0  0  0  0999 V2000
    1.4217  -15.0037   29.3817 C   0  0  0  0  0  0  0  0  0  0  0  0
    2.3344  -15.1099   28.2616 N   0  0  0  0  0  0  0  0  0  0  0  0
    3.5915  -15.7068   28.3877 C   0  0  0  0  0  0  0  0  0  0  0  0
    4.5212  -15.5518   27.4310 C   0  0  0  0  0  0  0  0  0  0  0  0
    4.2443  -14.8094   26.3103 N   0  0  0  0  0  0  0  0  0  0  0  0
    3.0108  -14.2003   26.0873 C   0  0  0  0  0  0  0  0  0  0  0  0
    2.7587  -13.4529   24.9270 N   0  0  0  0  0  0  0  0  0  0  0  0
    1.4984  -12.7122   24.6931 C   0  0  0  0  0  0  0  0  0  0  0  0
    1.7584  -11.3398   24.0510 C   0  0  0  0  0  0  0  0  0  0  0  0
    3.0975  -10.8424   24.5671 C   0  0  2  0  0  0  0  0  0  0  0  0
    3.3317   -9.3472   24.4102 C   0  0  0  0  0  0  0  0  0  0  0  0
    2.7120   -8.4682   24.9929 O   0  0  0  0  0  0  0  0  0  0  0  0
    4.3652   -9.0124   23.5100 C   0  0  0  0  0  0  0  0  0  0  0  0
    4.8637   -7.7752   23.3099 N   0  0  0  0  0  0  0  0  0  0  0  0
    5.7649   -7.7421   22.3313 N   0  0  0  0  0  0  0  0  0  0  0  0
    5.8811   -9.0226   21.9709 C   0  0  0  0  0  0  0  0  0  0  0  0
    5.0363   -9.8640   22.6810 C   0  0  0  0  0  0  0  0  0  0  0  0
    4.7950  -11.3118   22.6511 C   0  0  0  0  0  0  0  0  0  0  0  0
    4.2463  -11.7514   24.0248 C   0  0  2  0  0  0  0  0  0  0  0  0
    3.7559  -13.1869   23.8988 C   0  0  1  0  0  0  0  0  0  0  0  0
    4.8687  -14.0464   23.9652 O   0  0  0  0  0  0  0  0  0  0  0  0
    2.1000  -14.3828   27.0805 C   0  0  0  0  0  0  0  0  0  0  0  0
  1  2  1  0
  2  3  1  0
  3  4  2  0
  4  5  1  0
  5  6  1  0
  6  7  1  0
  7  8  1  0
  8  9  1  0
 10  9  1  6
 10 11  1  0
 11 12  2  0
 11 13  1  0
 13 14  1  0
 14 15  1  0
 15 16  2  0
 16 17  1  0
 17 18  1  0
 19 18  1  6
 19 20  1  0
 20 21  1  1
  6 22  2  0
 22  2  1  0
 20  7  1  0
 19 10  1  0
 17 13  2  0
M  END
>  <inchikey>  (11) 
RCZKUPNPRYZQDW-ZIBATOQPSA-N

>  <energy_score>  (11) 
-46.540994

>  <MoCASSIn MergeScore>  (11) 
0.389239

>  <fragmenstein_outcome>  (11) 
acceptable

>  <tags>  (11) 
BulkDock Fragalysis export;Active site iter1 merge poses;Fragmenstein placed

>  <fragmenstein_runtime>  (11) 
3.747765

>  <original ID>  (11) 
RCZKUPNPRYZQDW-ZIBATOQPSA-N

>  <alias>  (11) 
None

>  <ref_mols>  (11) 
x0489a,x0492a

>  <exports>  (11) 
/opt/xchem-fragalysis-2/maxwin/BulkDock/OUTPUTS/CpKRS_iter1_fstein_split1000_batch000_302134.sdf;/opt/xchem-fragalysis-2/maxwin/BulkDock/OUTPUTS/CpKRS_iter1_fstein_fragalysis.sdf;/opt/xchem-fragalysis-2/maxwin/CpKRS_FFF/hippo/filtered_merges.sdf

>  <csv_name>  (11) 
CpKRS_iter1_fstein_split1000_batch000.csv

>  <SLURM_JOB_NAME>  (11) 
BulkDock.place:CpKRS:CpKRS_iter1_fstein_split1000_batch000

>  <name>  (11) 
RCZKUPNPRYZQDW-ZIBATOQPSA-N

>  <fragmenstein_error>  (11) 
None

>  <score_inspiration>  (11) 
0.459217

>  <HIPPO Compound ID>  (11) 
16093

>  <scratch_subdir>  (11) 
/opt/xchem-fragalysis-2/maxwin/BulkDock/SCRATCH/302134/C16093-P33

>  <distance_score>  (11) 
0.878916

>  <Merging Algorithm>  (11) 
Fragmenstein

>  <subsites>  (11) 
None

>  <original SMILES>  (11) 
CN1C=CNC(N2CC[C@@H]3C(=O)c4[nH]ncc4C[C@@H]3[C@H]2O)=C1

>  <SLURM_JOB_ID>  (11) 
302134

>  <HIPPO Pose ID>  (11) 
5799

>  <fragmenstein_mode>  (11) 
expansion

>  <ref_pdb>  (11) 
filtered_merges_wPDBs_RCZKUPNPRYZQDW-ZIBATOQPSA-N.pdb

$$$$
RCZKUPNPRYZQDW-ZIBATOQPSA-N
     RDKit          3D

 22 25  0  0  0  0  0  0  0  0999 V2000
    1.4182  -14.9197   29.4446 C   0  0  0  0  0  0  0  0  0  0  0  0
    2.3062  -15.0589   28.3070 N   0  0  0  0  0  0  0  0  0  0  0  0
    3.5770  -15.6178   28.4494 C   0  0  0  0  0  0  0  0  0  0  0  0
    4.5133  -15.4507   27.5049 C   0  0  0  0  0  0  0  0  0  0  0  0
    4.2425  -14.7209   26.3774 N   0  0  0  0  0  0  0  0  0  0  0  0
    3.0137  -14.0928   26.1689 C   0  0  0  0  0  0  0  0  0  0  0  0
    2.8027  -13.2827   25.0454 N   0  0  0  0  0  0  0  0  0  0  0  0
    1.5136  -12.6110   24.7607 C   0  0  0  0  0  0  0  0  0  0  0  0
    1.7107  -11.2944   23.9861 C   0  0  0  0  0  0  0  0  0  0  0  0
    3.0093  -10.6964   24.4895 C   0  0  2  0  0  0  0  0  0  0  0  0
    3.2230   -9.2090   24.2741 C   0  0  0  0  0  0  0  0  0  0  0  0
    2.5511   -8.3218   24.7822 O   0  0  0  0  0  0  0  0  0  0  0  0
    4.3287   -8.9089   23.4451 C   0  0  0  0  0  0  0  0  0  0  0  0
    4.9453   -7.7173   23.3329 N   0  0  0  0  0  0  0  0  0  0  0  0
    5.8948   -7.7239   22.4021 N   0  0  0  0  0  0  0  0  0  0  0  0
    5.9532   -8.9985   22.0148 C   0  0  0  0  0  0  0  0  0  0  0  0
    5.0156   -9.7859   22.6529 C   0  0  0  0  0  0  0  0  0  0  0  0
    4.7442  -11.2218   22.6355 C   0  0  0  0  0  0  0  0  0  0  0  0
    4.2119  -11.5795   24.0385 C   0  0  2  0  0  0  0  0  0  0  0  0
    3.8158  -13.0308   24.0287 C   0  0  1  0  0  0  0  0  0  0  0  0
    4.9827  -13.8109   24.1663 O   0  0  0  0  0  0  0  0  0  0  0  0
    2.0851  -14.3041   27.1399 C   0  0  0  0  0  0  0  0  0  0  0  0
  1  2  1  0
  2  3  1  0
  3  4  2  0
  4  5  1  0
  5  6  1  0
  6  7  1  0
  7  8  1  0
  8  9  1  0
 10  9  1  6
 10 11  1  0
 11 12  2  0
 11 13  1  0
 13 14  1  0
 14 15  1  0
 15 16  2  0
 16 17  1  0
 17 18  1  0
 19 18  1  6
 19 20  1  0
 20 21  1  1
  6 22  2  0
 22  2  1  0
 20  7  1  0
 19 10  1  0
 17 13  2  0
M  END
>  <inchikey>  (12) 
RCZKUPNPRYZQDW-ZIBATOQPSA-N

>  <energy_score>  (12) 
-41.916483

>  <MoCASSIn MergeScore>  (12) 
0.393804

>  <fragmenstein_outcome>  (12) 
acceptable

>  <tags>  (12) 
BulkDock Fragalysis export;Active site iter1 merge poses;Fragmenstein placed

>  <fragmenstein_runtime>  (12) 
3.895077

>  <original ID>  (12) 
RCZKUPNPRYZQDW-ZIBATOQPSA-N

>  <alias>  (12) 
None

>  <ref_mols>  (12) 
x0489a,x0492a

>  <exports>  (12) 
/opt/xchem-fragalysis-2/maxwin/BulkDock/OUTPUTS/CpKRS_iter1_fstein_split1000_batch000_302134.sdf;/opt/xchem-fragalysis-2/maxwin/BulkDock/OUTPUTS/CpKRS_iter1_fstein_fragalysis.sdf;/opt/xchem-fragalysis-2/maxwin/CpKRS_FFF/hippo/filtered_merges.sdf

>  <csv_name>  (12) 
CpKRS_iter1_fstein_split1000_batch000.csv

>  <SLURM_JOB_NAME>  (12) 
BulkDock.place:CpKRS:CpKRS_iter1_fstein_split1000_batch000

>  <name>  (12) 
RCZKUPNPRYZQDW-ZIBATOQPSA-N

>  <fragmenstein_error>  (12) 
None

>  <score_inspiration>  (12) 
0.465396

>  <HIPPO Compound ID>  (12) 
16093

>  <scratch_subdir>  (12) 
/opt/xchem-fragalysis-2/maxwin/BulkDock/SCRATCH/302134/C16093-P34

>  <distance_score>  (12) 
0.909793

>  <Merging Algorithm>  (12) 
Fragmenstein

>  <subsites>  (12) 
None

>  <original SMILES>  (12) 
CN1C=CNC(N2CC[C@@H]3C(=O)c4[nH]ncc4C[C@@H]3[C@H]2O)=C1

>  <SLURM_JOB_ID>  (12) 
302134

>  <HIPPO Pose ID>  (12) 
5843

>  <fragmenstein_mode>  (12) 
expansion

>  <ref_pdb>  (12) 
filtered_merges_wPDBs_RCZKUPNPRYZQDW-ZIBATOQPSA-N.pdb

$$$$
HRUNAPFXVQCMET-MRVPVSSYSA-N
     RDKit          3D

 12 12  0  0  0  0  0  0  0  0999 V2000
    4.5865   -8.9641   23.0600 C   0  0  0  0  0  0  0  0  0  0  0  0
    4.5739  -10.2743   22.7608 C   0  0  0  0  0  0  0  0  0  0  0  0
    4.7546  -11.4470   23.7012 C   0  0  1  0  0  0  0  0  0  0  0  0
    5.3525  -10.9500   25.0022 C   0  0  0  0  0  0  0  0  0  0  0  0
    3.5098  -12.2157   23.7447 N   0  0  0  0  0  0  0  0  0  0  0  0
    3.1114  -12.9005   24.9828 C   0  0  0  0  0  0  0  0  0  0  0  0
    3.9532  -14.0896   25.4785 C   0  0  0  0  0  0  0  0  0  0  0  0
    3.3485  -14.8307   26.6357 C   0  0  0  0  0  0  0  0  0  0  0  0
    3.9366  -15.8719   27.3942 C   0  0  0  0  0  0  0  0  0  0  0  0
    3.1568  -16.2928   28.3960 N   0  0  0  0  0  0  0  0  0  0  0  0
    1.9918  -15.5509   28.2735 O   0  0  0  0  0  0  0  0  0  0  0  0
    2.1134  -14.6952   27.2281 C   0  0  0  0  0  0  0  0  0  0  0  0
  1  2  2  0
  2  3  1  0
  3  4  1  1
  3  5  1  0
  5  6  1  0
  6  7  1  0
  7  8  1  0
  8  9  1  0
  9 10  2  0
 10 11  1  0
 11 12  1  0
 12  8  2  0
M  END
>  <inchikey>  (13) 
HRUNAPFXVQCMET-MRVPVSSYSA-N

>  <energy_score>  (13) 
-14.938433

>  <MoCASSIn MergeScore>  (13) 
0.455714

>  <fragmenstein_outcome>  (13) 
acceptable

>  <tags>  (13) 
BulkDock Fragalysis export;Active site iter1 merge poses;Fragmenstein placed

>  <fragmenstein_runtime>  (13) 
2.251972

>  <original ID>  (13) 
HRUNAPFXVQCMET-MRVPVSSYSA-N

>  <alias>  (13) 
None

>  <ref_mols>  (13) 
x0414a,x0759a

>  <exports>  (13) 
/opt/xchem-fragalysis-2/maxwin/BulkDock/OUTPUTS/CpKRS_iter1_knitwork_impure_split1000_batch113_302122.sdf;/opt/xchem-fragalysis-2/maxwin/BulkDock/OUTPUTS/CpKRS_iter1_knitwork_impure_fragalysis.sdf;/opt/xchem-fragalysis-2/maxwin/CpKRS_FFF/hippo/filtered_merges.sdf

>  <csv_name>  (13) 
CpKRS_iter1_knitwork_impure_split1000_batch113.csv

>  <SLURM_JOB_NAME>  (13) 
BulkDock.place:CpKRS:CpKRS_iter1_knitwork_impure_split1000_batch113

>  <name>  (13) 
HRUNAPFXVQCMET-MRVPVSSYSA-N

>  <fragmenstein_error>  (13) 
None

>  <score_inspiration>  (13) 
0.687527

>  <HIPPO Compound ID>  (13) 
15015

>  <scratch_subdir>  (13) 
/opt/xchem-fragalysis-2/maxwin/BulkDock/SCRATCH/302122/C15015-P62

>  <distance_score>  (13) 
0.902698

>  <Merging Algorithm>  (13) 
Knitwork Impure

>  <subsites>  (13) 
None

>  <original SMILES>  (13) 
C=C[C@@H](C)NCCc1cnoc1

>  <SLURM_JOB_ID>  (13) 
302122

>  <HIPPO Pose ID>  (13) 
6040

>  <fragmenstein_mode>  (13) 
expansion

>  <ref_pdb>  (13) 
filtered_merges_wPDBs_HRUNAPFXVQCMET-MRVPVSSYSA-N.pdb

$$$$
MKIFDNQIOWOFIK-UHFFFAOYSA-N
     RDKit          3D

 15 15  0  0  0  0  0  0  0  0999 V2000
    5.6116   -7.8015   23.0804 C   0  0  0  0  0  0  0  0  0  0  0  0
    4.7762   -8.9737   22.5872 C   0  0  0  0  0  0  0  0  0  0  0  0
    4.1936   -9.8742   23.6940 C   0  0  0  0  0  0  0  0  0  0  0  0
    3.1810   -9.0662   24.5128 C   0  0  0  0  0  0  0  0  0  0  0  0
    5.3669  -10.3080   24.5560 C   0  0  0  0  0  0  0  0  0  0  0  0
    3.5690  -11.1462   23.0500 C   0  0  0  0  0  0  0  0  0  0  0  0
    2.2894  -11.7280   23.6821 C   0  0  0  0  0  0  0  0  0  0  0  0
    2.4603  -12.3366   25.0034 N   0  0  0  0  0  0  0  0  0  0  0  0
    2.9775  -13.7010   24.8672 C   0  0  0  0  0  0  0  0  0  0  0  0
    3.3103  -14.3858   26.1623 C   0  0  0  0  0  0  0  0  0  0  0  0
    2.3305  -14.6023   27.1304 C   0  0  0  0  0  0  0  0  0  0  0  0
    2.5373  -15.3267   28.2613 N   0  0  0  0  0  0  0  0  0  0  0  0
    3.7872  -15.8322   28.3606 C   0  0  0  0  0  0  0  0  0  0  0  0
    4.7737  -15.6019   27.4136 C   0  0  0  0  0  0  0  0  0  0  0  0
    4.5688  -14.8676   26.3076 N   0  0  0  0  0  0  0  0  0  0  0  0
  1  2  1  0
  2  3  1  0
  3  4  1  0
  3  5  1  0
  3  6  1  0
  6  7  1  0
  7  8  1  0
  8  9  1  0
  9 10  1  0
 10 11  2  0
 11 12  1  0
 12 13  2  0
 13 14  1  0
 14 15  2  0
 15 10  1  0
M  END
>  <inchikey>  (14) 
MKIFDNQIOWOFIK-UHFFFAOYSA-N

>  <energy_score>  (14) 
-19.568594

>  <MoCASSIn MergeScore>  (14) 
0.551609

>  <fragmenstein_outcome>  (14) 
acceptable

>  <tags>  (14) 
BulkDock Fragalysis export;Active site iter1 merge poses;Fragmenstein placed

>  <fragmenstein_runtime>  (14) 
6.731566

>  <original ID>  (14) 
MKIFDNQIOWOFIK-UHFFFAOYSA-N

>  <alias>  (14) 
None

>  <ref_mols>  (14) 
x0414a,x0489a

>  <exports>  (14) 
/opt/xchem-fragalysis-2/maxwin/BulkDock/OUTPUTS/CpKRS_iter1_knitwork_impure_split1000_batch050_302059.sdf;/opt/xchem-fragalysis-2/maxwin/BulkDock/OUTPUTS/CpKRS_iter1_knitwork_impure_fragalysis.sdf;/opt/xchem-fragalysis-2/maxwin/CpKRS_FFF/hippo/filtered_merges.sdf

>  <csv_name>  (14) 
CpKRS_iter1_knitwork_impure_split1000_batch050.csv

>  <SLURM_JOB_NAME>  (14) 
BulkDock.place:CpKRS:CpKRS_iter1_knitwork_impure_split1000_batch050

>  <name>  (14) 
MKIFDNQIOWOFIK-UHFFFAOYSA-N

>  <fragmenstein_error>  (14) 
None

>  <score_inspiration>  (14) 
0.698291

>  <HIPPO Compound ID>  (14) 
18022

>  <scratch_subdir>  (14) 
/opt/xchem-fragalysis-2/maxwin/BulkDock/SCRATCH/302059/C18022-P33

>  <distance_score>  (14) 
0.979758

>  <Merging Algorithm>  (14) 
Knitwork Impure

>  <subsites>  (14) 
None

>  <original SMILES>  (14) 
CCC(C)(C)CCNCc1cnccn1

>  <SLURM_JOB_ID>  (14) 
302059

>  <HIPPO Pose ID>  (14) 
6069

>  <fragmenstein_mode>  (14) 
expansion

>  <ref_pdb>  (14) 
filtered_merges_wPDBs_MKIFDNQIOWOFIK-UHFFFAOYSA-N.pdb

$$$$
MGQWLSGJRVKGKZ-QMMMGPOBSA-N
     RDKit          3D

 15 15  0  0  0  0  0  0  0  0999 V2000
    5.7299  -10.8547   24.9531 C   0  0  0  0  0  0  0  0  0  0  0  0
    4.2699  -11.1172   24.6082 C   0  0  1  0  0  0  0  0  0  0  0  0
    3.8071  -10.0922   23.5723 C   0  0  0  0  0  0  0  0  0  0  0  0
    4.6487  -10.0540   22.2948 C   0  0  0  0  0  0  0  0  0  0  0  0
    5.5124   -8.8219   22.2102 C   0  0  0  0  0  0  0  0  0  0  0  0
    4.7656   -7.7141   22.4569 F   0  0  0  0  0  0  0  0  0  0  0  0
    5.9313   -8.6969   20.9360 F   0  0  0  0  0  0  0  0  0  0  0  0
    4.0290  -12.4493   24.0512 N   0  0  0  0  0  0  0  0  0  0  0  0
    3.2085  -13.3056   24.9277 C   0  0  0  0  0  0  0  0  0  0  0  0
    4.0497  -14.2583   25.7844 C   0  0  0  0  0  0  0  0  0  0  0  0
    3.3154  -14.9667   26.8683 C   0  0  0  0  0  0  0  0  0  0  0  0
    3.8267  -15.9832   27.7065 C   0  0  0  0  0  0  0  0  0  0  0  0
    2.9637  -16.3525   28.6551 N   0  0  0  0  0  0  0  0  0  0  0  0
    1.8215  -15.6059   28.4094 O   0  0  0  0  0  0  0  0  0  0  0  0
    2.0375  -14.7938   27.3447 C   0  0  0  0  0  0  0  0  0  0  0  0
  2  1  1  6
  2  3  1  0
  3  4  1  0
  4  5  1  0
  5  6  1  0
  5  7  1  0
  2  8  1  0
  8  9  1  0
  9 10  1  0
 10 11  1  0
 11 12  1  0
 12 13  2  0
 13 14  1  0
 14 15  1  0
 15 11  2  0
M  END
>  <inchikey>  (15) 
MGQWLSGJRVKGKZ-QMMMGPOBSA-N

>  <energy_score>  (15) 
-26.136496

>  <MoCASSIn MergeScore>  (15) 
0.486792

>  <fragmenstein_outcome>  (15) 
acceptable

>  <tags>  (15) 
BulkDock Fragalysis export;Active site iter1 merge poses;Fragmenstein placed

>  <fragmenstein_runtime>  (15) 
2.302594

>  <original ID>  (15) 
MGQWLSGJRVKGKZ-QMMMGPOBSA-N

>  <alias>  (15) 
None

>  <ref_mols>  (15) 
x0414a,x0759a

>  <exports>  (15) 
/opt/xchem-fragalysis-2/maxwin/BulkDock/OUTPUTS/CpKRS_iter1_knitwork_impure_split1000_batch113_302122.sdf;/opt/xchem-fragalysis-2/maxwin/BulkDock/OUTPUTS/CpKRS_iter1_knitwork_impure_fragalysis.sdf;/opt/xchem-fragalysis-2/maxwin/CpKRS_FFF/hippo/filtered_merges.sdf

>  <csv_name>  (15) 
CpKRS_iter1_knitwork_impure_split1000_batch113.csv

>  <SLURM_JOB_NAME>  (15) 
BulkDock.place:CpKRS:CpKRS_iter1_knitwork_impure_split1000_batch113

>  <name>  (15) 
MGQWLSGJRVKGKZ-QMMMGPOBSA-N

>  <fragmenstein_error>  (15) 
None

>  <score_inspiration>  (15) 
0.66789

>  <HIPPO Compound ID>  (15) 
15042

>  <scratch_subdir>  (15) 
/opt/xchem-fragalysis-2/maxwin/BulkDock/SCRATCH/302122/C15042-P62

>  <distance_score>  (15) 
0.925416

>  <Merging Algorithm>  (15) 
Knitwork Impure

>  <subsites>  (15) 
None

>  <original SMILES>  (15) 
C[C@@H](CCC(F)F)NCCc1cnoc1

>  <SLURM_JOB_ID>  (15) 
302122

>  <HIPPO Pose ID>  (15) 
6466

>  <fragmenstein_mode>  (15) 
expansion

>  <ref_pdb>  (15) 
filtered_merges_wPDBs_MGQWLSGJRVKGKZ-QMMMGPOBSA-N.pdb

$$$$
GQUZZKVTQBBCAK-LLVKDONJSA-N
     RDKit          3D

 16 18  0  0  0  0  0  0  0  0999 V2000
    1.5630  -12.5034   24.7202 C   0  0  0  0  0  0  0  0  0  0  0  0
    2.3962  -12.3123   23.7400 N   0  0  0  0  0  0  0  0  0  0  0  0
    3.6767  -12.9435   24.1823 C   0  0  1  0  0  0  0  0  0  0  0  0
    4.7027  -11.9284   24.2491 N   0  0  0  0  0  0  0  0  0  0  0  0
    4.9718  -11.4085   22.9110 C   0  0  0  0  0  0  0  0  0  0  0  0
    5.3053   -9.9694   23.0148 C   0  0  0  0  0  0  0  0  0  0  0  0
    5.7405   -9.1623   24.0444 C   0  0  0  0  0  0  0  0  0  0  0  0
    5.8185   -7.8561   23.5346 C   0  0  0  0  0  0  0  0  0  0  0  0
    5.4301   -7.9505   22.2214 C   0  0  0  0  0  0  0  0  0  0  0  0
    5.1203   -9.2249   21.8911 O   0  0  0  0  0  0  0  0  0  0  0  0
    3.3690  -13.5876   25.5098 C   0  0  0  0  0  0  0  0  0  0  0  0
    4.1174  -14.4269   26.2496 N   0  0  0  0  0  0  0  0  0  0  0  0
    3.4337  -14.9499   27.2994 C   0  0  0  0  0  0  0  0  0  0  0  0
    2.1044  -14.6094   27.6024 C   0  0  0  0  0  0  0  0  0  0  0  0
    1.3547  -13.7477   26.8621 N   0  0  0  0  0  0  0  0  0  0  0  0
    2.0651  -13.2843   25.8197 C   0  0  0  0  0  0  0  0  0  0  0  0
  1  2  2  0
  2  3  1  0
  3  4  1  1
  4  5  1  0
  5  6  1  0
  6  7  2  0
  7  8  1  0
  8  9  2  0
  9 10  1  0
  3 11  1  0
 11 12  2  0
 12 13  1  0
 13 14  2  0
 14 15  1  0
 15 16  2  0
 16  1  1  0
 10  6  1  0
 16 11  1  0
M  END
>  <inchikey>  (16) 
GQUZZKVTQBBCAK-LLVKDONJSA-N

>  <energy_score>  (16) 
-18.808638

>  <MoCASSIn MergeScore>  (16) 
0.581022

>  <fragmenstein_outcome>  (16) 
acceptable

>  <tags>  (16) 
BulkDock Fragalysis export;Active site iter1 merge poses;Fragmenstein placed

>  <fragmenstein_runtime>  (16) 
2.245001

>  <original ID>  (16) 
GQUZZKVTQBBCAK-LLVKDONJSA-N

>  <alias>  (16) 
None

>  <ref_mols>  (16) 
x0492a,x0555a,x0602a

>  <exports>  (16) 
/opt/xchem-fragalysis-2/maxwin/BulkDock/OUTPUTS/CpKRS_iter1_fstein_split1000_batch000_302134.sdf;/opt/xchem-fragalysis-2/maxwin/BulkDock/OUTPUTS/CpKRS_iter1_fstein_fragalysis.sdf;/opt/xchem-fragalysis-2/maxwin/CpKRS_FFF/hippo/filtered_merges.sdf

>  <csv_name>  (16) 
CpKRS_iter1_fstein_split1000_batch000.csv

>  <SLURM_JOB_NAME>  (16) 
BulkDock.place:CpKRS:CpKRS_iter1_fstein_split1000_batch000

>  <name>  (16) 
GQUZZKVTQBBCAK-LLVKDONJSA-N

>  <fragmenstein_error>  (16) 
None

>  <score_inspiration>  (16) 
0.668706

>  <HIPPO Compound ID>  (16) 
16119

>  <scratch_subdir>  (16) 
/opt/xchem-fragalysis-2/maxwin/BulkDock/SCRATCH/302134/C16119-P34

>  <distance_score>  (16) 
1.045454

>  <Merging Algorithm>  (16) 
Fragmenstein

>  <subsites>  (16) 
None

>  <original SMILES>  (16) 
C1=N[C@@H](NCc2ccco2)c2nccnc21

>  <SLURM_JOB_ID>  (16) 
302134

>  <HIPPO Pose ID>  (16) 
6613

>  <fragmenstein_mode>  (16) 
expansion

>  <ref_pdb>  (16) 
filtered_merges_wPDBs_GQUZZKVTQBBCAK-LLVKDONJSA-N.pdb

$$$$
SYKYHLKBQWREDS-UHFFFAOYSA-N
     RDKit          3D

 16 17  0  0  0  0  0  0  0  0999 V2000
    5.6703  -13.7300   24.7372 O   0  0  0  0  0  0  0  0  0  0  0  0
    4.5711  -13.3510   24.7601 C   0  0  0  0  0  0  0  0  0  0  0  0
    3.8344  -12.3828   23.8279 N   0  0  0  0  0  0  0  0  0  0  0  0
    4.2633  -11.7490   22.6170 C   0  0  0  0  0  0  0  0  0  0  0  0
    4.7792  -10.3905   22.8922 C   0  0  0  0  0  0  0  0  0  0  0  0
    5.7279   -9.8923   23.7576 C   0  0  0  0  0  0  0  0  0  0  0  0
    5.8280   -8.5072   23.5175 C   0  0  0  0  0  0  0  0  0  0  0  0
    4.9516   -8.2498   22.4935 C   0  0  0  0  0  0  0  0  0  0  0  0
    4.3000   -9.3777   22.1147 O   0  0  0  0  0  0  0  0  0  0  0  0
    3.6358  -13.8790   25.8115 C   0  0  0  0  0  0  0  0  0  0  0  0
    4.0500  -14.9351   26.6075 C   0  0  0  0  0  0  0  0  0  0  0  0
    3.1935  -15.3383   27.6087 C   0  0  0  0  0  0  0  0  0  0  0  0
    3.5326  -16.3605   28.4053 F   0  0  0  0  0  0  0  0  0  0  0  0
    1.9940  -14.6833   27.8238 C   0  0  0  0  0  0  0  0  0  0  0  0
    1.6568  -13.6570   26.9600 C   0  0  0  0  0  0  0  0  0  0  0  0
    2.4301  -13.2439   25.9370 N   0  0  0  0  0  0  0  0  0  0  0  0
  1  2  2  0
  2  3  1  0
  3  4  1  0
  4  5  1  0
  5  6  2  0
  6  7  1  0
  7  8  2  0
  8  9  1  0
  2 10  1  0
 10 11  2  0
 11 12  1  0
 12 13  1  0
 12 14  2  0
 14 15  1  0
 15 16  2  0
  9  5  1  0
 16 10  1  0
M  END
>  <inchikey>  (17) 
SYKYHLKBQWREDS-UHFFFAOYSA-N

>  <energy_score>  (17) 
-9.111269

>  <MoCASSIn MergeScore>  (17) 
0.855311

>  <fragmenstein_outcome>  (17) 
acceptable

>  <tags>  (17) 
BulkDock Fragalysis export;Active site iter1 merge poses;Fragmenstein placed

>  <fragmenstein_runtime>  (17) 
2.051937

>  <original ID>  (17) 
SYKYHLKBQWREDS-UHFFFAOYSA-N

>  <alias>  (17) 
None

>  <ref_mols>  (17) 
x0492a,x0654c

>  <exports>  (17) 
/opt/xchem-fragalysis-2/maxwin/BulkDock/OUTPUTS/CpKRS_iter1_fstein_split1000_batch000_302134.sdf;/opt/xchem-fragalysis-2/maxwin/BulkDock/OUTPUTS/CpKRS_iter1_fstein_fragalysis.sdf;/opt/xchem-fragalysis-2/maxwin/CpKRS_FFF/hippo/filtered_merges.sdf

>  <csv_name>  (17) 
CpKRS_iter1_fstein_split1000_batch000.csv

>  <SLURM_JOB_NAME>  (17) 
BulkDock.place:CpKRS:CpKRS_iter1_fstein_split1000_batch000

>  <name>  (17) 
SYKYHLKBQWREDS-UHFFFAOYSA-N

>  <fragmenstein_error>  (17) 
None

>  <score_inspiration>  (17) 
0.885261

>  <HIPPO Compound ID>  (17) 
16100

>  <scratch_subdir>  (17) 
/opt/xchem-fragalysis-2/maxwin/BulkDock/SCRATCH/302134/C16100-P34

>  <distance_score>  (17) 
0.589322

>  <Merging Algorithm>  (17) 
Fragmenstein

>  <subsites>  (17) 
None

>  <original SMILES>  (17) 
O=C(NCc1ccco1)c1cc(F)ccn1

>  <SLURM_JOB_ID>  (17) 
302134

>  <HIPPO Pose ID>  (17) 
6712

>  <fragmenstein_mode>  (17) 
expansion

>  <ref_pdb>  (17) 
filtered_merges_wPDBs_SYKYHLKBQWREDS-UHFFFAOYSA-N.pdb

$$$$
GTLXUISAOSHIGM-UHFFFAOYSA-N
     RDKit          3D

 16 17  0  0  0  0  0  0  0  0999 V2000
    5.6629  -13.8068   24.8953 O   0  0  0  0  0  0  0  0  0  0  0  0
    4.5439  -13.4887   24.8525 C   0  0  0  0  0  0  0  0  0  0  0  0
    3.8008  -12.5933   23.8490 N   0  0  0  0  0  0  0  0  0  0  0  0
    4.2548  -11.9772   22.6342 C   0  0  0  0  0  0  0  0  0  0  0  0
    4.7205  -10.6021   22.9146 C   0  0  0  0  0  0  0  0  0  0  0  0
    5.6438  -10.0998   23.8030 C   0  0  0  0  0  0  0  0  0  0  0  0
    5.6186   -8.7156   23.6519 C   0  0  0  0  0  0  0  0  0  0  0  0
    6.3030   -7.8426   24.3902 F   0  0  0  0  0  0  0  0  0  0  0  0
    4.7653   -8.4308   22.6244 C   0  0  0  0  0  0  0  0  0  0  0  0
    4.1936   -9.5826   22.1698 O   0  0  0  0  0  0  0  0  0  0  0  0
    3.6052  -13.9735   25.9158 C   0  0  0  0  0  0  0  0  0  0  0  0
    4.0235  -14.9563   26.8100 C   0  0  0  0  0  0  0  0  0  0  0  0
    3.2666  -15.3621   27.8672 N   0  0  0  0  0  0  0  0  0  0  0  0
    2.0803  -14.7301   27.9745 C   0  0  0  0  0  0  0  0  0  0  0  0
    1.6524  -13.7659   27.0668 C   0  0  0  0  0  0  0  0  0  0  0  0
    2.3832  -13.3636   26.0045 N   0  0  0  0  0  0  0  0  0  0  0  0
  1  2  2  0
  2  3  1  0
  3  4  1  0
  4  5  1  0
  5  6  2  0
  6  7  1  0
  7  8  1  0
  7  9  2  0
  9 10  1  0
  2 11  1  0
 11 12  2  0
 12 13  1  0
 13 14  2  0
 14 15  1  0
 15 16  2  0
 10  5  1  0
 16 11  1  0
M  END
>  <inchikey>  (18) 
GTLXUISAOSHIGM-UHFFFAOYSA-N

>  <energy_score>  (18) 
-1.561763

>  <MoCASSIn MergeScore>  (18) 
0.804153

>  <fragmenstein_outcome>  (18) 
acceptable

>  <tags>  (18) 
BulkDock Fragalysis export;Active site iter1 merge poses;Fragmenstein placed

>  <fragmenstein_runtime>  (18) 
1.678496

>  <original ID>  (18) 
GTLXUISAOSHIGM-UHFFFAOYSA-N

>  <alias>  (18) 
None

>  <ref_mols>  (18) 
x0492a,x0759b

>  <exports>  (18) 
/opt/xchem-fragalysis-2/maxwin/BulkDock/OUTPUTS/CpKRS_iter1_fstein_split1000_batch000_302134.sdf;/opt/xchem-fragalysis-2/maxwin/BulkDock/OUTPUTS/CpKRS_iter1_fstein_fragalysis.sdf;/opt/xchem-fragalysis-2/maxwin/CpKRS_FFF/hippo/filtered_merges.sdf

>  <csv_name>  (18) 
CpKRS_iter1_fstein_split1000_batch000.csv

>  <SLURM_JOB_NAME>  (18) 
BulkDock.place:CpKRS:CpKRS_iter1_fstein_split1000_batch000

>  <name>  (18) 
GTLXUISAOSHIGM-UHFFFAOYSA-N

>  <fragmenstein_error>  (18) 
None

>  <score_inspiration>  (18) 
0.857074

>  <HIPPO Compound ID>  (18) 
16101

>  <scratch_subdir>  (18) 
/opt/xchem-fragalysis-2/maxwin/BulkDock/SCRATCH/302134/C16101-P34

>  <distance_score>  (18) 
0.693953

>  <Merging Algorithm>  (18) 
Fragmenstein

>  <subsites>  (18) 
None

>  <original SMILES>  (18) 
O=C(NCc1cc(F)co1)c1cnccn1

>  <SLURM_JOB_ID>  (18) 
302134

>  <HIPPO Pose ID>  (18) 
6741

>  <fragmenstein_mode>  (18) 
expansion

>  <ref_pdb>  (18) 
filtered_merges_wPDBs_GTLXUISAOSHIGM-UHFFFAOYSA-N.pdb

$$$$
GTLXUISAOSHIGM-UHFFFAOYSA-N
     RDKit          3D

 16 17  0  0  0  0  0  0  0  0999 V2000
    5.7945  -14.0734   25.0828 O   0  0  0  0  0  0  0  0  0  0  0  0
    4.6828  -13.7473   24.9663 C   0  0  0  0  0  0  0  0  0  0  0  0
    4.0201  -12.8163   23.9384 N   0  0  0  0  0  0  0  0  0  0  0  0
    4.5656  -12.1661   22.7827 C   0  0  0  0  0  0  0  0  0  0  0  0
    4.9914  -10.7935   23.1585 C   0  0  0  0  0  0  0  0  0  0  0  0
    5.6584  -10.2873   24.2583 C   0  0  0  0  0  0  0  0  0  0  0  0
    5.7744   -8.9126   24.0307 C   0  0  0  0  0  0  0  0  0  0  0  0
    6.3252   -8.0341   24.8682 F   0  0  0  0  0  0  0  0  0  0  0  0
    5.2154   -8.6361   22.8139 C   0  0  0  0  0  0  0  0  0  0  0  0
    4.7092   -9.7822   22.2746 O   0  0  0  0  0  0  0  0  0  0  0  0
    3.6671  -14.1701   25.9844 C   0  0  0  0  0  0  0  0  0  0  0  0
    4.0007  -15.1086   26.9537 C   0  0  0  0  0  0  0  0  0  0  0  0
    3.1790  -15.4017   27.9979 N   0  0  0  0  0  0  0  0  0  0  0  0
    2.0115  -14.7232   28.0003 C   0  0  0  0  0  0  0  0  0  0  0  0
    1.6642  -13.8068   27.0145 C   0  0  0  0  0  0  0  0  0  0  0  0
    2.4728  -13.4962   25.9788 N   0  0  0  0  0  0  0  0  0  0  0  0
  1  2  2  0
  2  3  1  0
  3  4  1  0
  4  5  1  0
  5  6  2  0
  6  7  1  0
  7  8  1  0
  7  9  2  0
  9 10  1  0
  2 11  1  0
 11 12  2  0
 12 13  1  0
 13 14  2  0
 14 15  1  0
 15 16  2  0
 10  5  1  0
 16 11  1  0
M  END
>  <inchikey>  (19) 
GTLXUISAOSHIGM-UHFFFAOYSA-N

>  <energy_score>  (19) 
-1.551207

>  <MoCASSIn MergeScore>  (19) 
0.785808

>  <fragmenstein_outcome>  (19) 
acceptable

>  <tags>  (19) 
BulkDock Fragalysis export;Active site iter1 merge poses;Fragmenstein placed

>  <fragmenstein_runtime>  (19) 
2.234746

>  <original ID>  (19) 
GTLXUISAOSHIGM-UHFFFAOYSA-N

>  <alias>  (19) 
None

>  <ref_mols>  (19) 
x0492a,x0759b

>  <exports>  (19) 
/opt/xchem-fragalysis-2/maxwin/BulkDock/OUTPUTS/CpKRS_iter1_fstein_split1000_batch000_302134.sdf;/opt/xchem-fragalysis-2/maxwin/BulkDock/OUTPUTS/CpKRS_iter1_fstein_fragalysis.sdf;/opt/xchem-fragalysis-2/maxwin/CpKRS_FFF/hippo/filtered_merges.sdf

>  <csv_name>  (19) 
CpKRS_iter1_fstein_split1000_batch000.csv

>  <SLURM_JOB_NAME>  (19) 
BulkDock.place:CpKRS:CpKRS_iter1_fstein_split1000_batch000

>  <name>  (19) 
GTLXUISAOSHIGM-UHFFFAOYSA-N

>  <fragmenstein_error>  (19) 
None

>  <score_inspiration>  (19) 
0.838852

>  <HIPPO Compound ID>  (19) 
16101

>  <scratch_subdir>  (19) 
/opt/xchem-fragalysis-2/maxwin/BulkDock/SCRATCH/302134/C16101-P61

>  <distance_score>  (19) 
0.616579

>  <Merging Algorithm>  (19) 
Fragmenstein

>  <subsites>  (19) 
None

>  <original SMILES>  (19) 
O=C(NCc1cc(F)co1)c1cnccn1

>  <SLURM_JOB_ID>  (19) 
302134

>  <HIPPO Pose ID>  (19) 
6768

>  <fragmenstein_mode>  (19) 
expansion

>  <ref_pdb>  (19) 
filtered_merges_wPDBs_GTLXUISAOSHIGM-UHFFFAOYSA-N.pdb

$$$$
CMYJESKWMXRRIE-UHFFFAOYSA-N
     RDKit          3D

  9  9  0  0  0  0  0  0  0  0999 V2000
    4.5971  -12.9818   23.7145 C   0  0  0  0  0  0  0  0  0  0  0  0
    3.3271  -12.5043   24.4318 C   0  0  0  0  0  0  0  0  0  0  0  0
    2.0656  -12.4575   23.5510 C   0  0  0  0  0  0  0  0  0  0  0  0
    3.5732  -11.0651   24.6248 N   0  0  0  0  0  0  0  0  0  0  0  0
    3.0051  -13.2794   25.7047 C   0  0  0  0  0  0  0  0  0  0  0  0
    1.9108  -13.1110   26.4359 N   0  0  0  0  0  0  0  0  0  0  0  0
    1.9395  -14.0475   27.4580 C   0  0  0  0  0  0  0  0  0  0  0  0
    2.9355  -14.9186   27.5691 N   0  0  0  0  0  0  0  0  0  0  0  0
    3.9735  -14.5814   26.3117 S   0  0  0  0  0  0  0  0  0  0  0  0
  1  2  1  0
  2  3  1  0
  2  4  1  0
  2  5  1  0
  5  6  2  0
  6  7  1  0
  7  8  2  0
  8  9  1  0
  9  5  1  0
M  END
>  <inchikey>  (20) 
CMYJESKWMXRRIE-UHFFFAOYSA-N

>  <energy_score>  (20) 
-27.285125

>  <MoCASSIn MergeScore>  (20) 
0.426123

>  <fragmenstein_outcome>  (20) 
acceptable

>  <tags>  (20) 
BulkDock Fragalysis export;Active site iter1 merge poses;Fragmenstein placed

>  <fragmenstein_runtime>  (20) 
1.49071

>  <original ID>  (20) 
CMYJESKWMXRRIE-UHFFFAOYSA-N

>  <alias>  (20) 
None

>  <ref_mols>  (20) 
x0414a,x0492a

>  <exports>  (20) 
/opt/xchem-fragalysis-2/maxwin/BulkDock/OUTPUTS/CpKRS_iter1_knitwork_impure_split1000_batch009_302018.sdf;/opt/xchem-fragalysis-2/maxwin/BulkDock/OUTPUTS/CpKRS_iter1_knitwork_impure_fragalysis.sdf;/opt/xchem-fragalysis-2/maxwin/CpKRS_FFF/hippo/filtered_merges.sdf

>  <csv_name>  (20) 
CpKRS_iter1_knitwork_impure_split1000_batch009.csv

>  <SLURM_JOB_NAME>  (20) 
BulkDock.place:CpKRS:CpKRS_iter1_knitwork_impure_split1000_batch009

>  <name>  (20) 
CMYJESKWMXRRIE-UHFFFAOYSA-N

>  <fragmenstein_error>  (20) 
None

>  <score_inspiration>  (20) 
0.650061

>  <HIPPO Compound ID>  (20) 
27308

>  <scratch_subdir>  (20) 
/opt/xchem-fragalysis-2/maxwin/BulkDock/SCRATCH/302018/C27308-P34

>  <distance_score>  (20) 
0.970737

>  <Merging Algorithm>  (20) 
Knitwork Impure

>  <subsites>  (20) 
None

>  <original SMILES>  (20) 
CC(C)(N)c1ncns1

>  <SLURM_JOB_ID>  (20) 
302018

>  <HIPPO Pose ID>  (20) 
7031

>  <fragmenstein_mode>  (20) 
expansion

>  <ref_pdb>  (20) 
filtered_merges_wPDBs_CMYJESKWMXRRIE-UHFFFAOYSA-N.pdb

$$$$
LPSMHLQTTQNKAM-UHFFFAOYSA-N
     RDKit          3D

 15 15  0  0  0  0  0  0  0  0999 V2000
    4.6814   -9.8413   21.5932 C   0  0  0  0  0  0  0  0  0  0  0  0
    4.4398  -10.5060   22.9666 C   0  0  0  0  0  0  0  0  0  0  0  0
    5.7946  -10.9724   23.4298 C   0  0  0  0  0  0  0  0  0  0  0  0
    3.5059  -11.7268   22.8165 C   0  0  0  0  0  0  0  0  0  0  0  0
    2.9265  -12.2837   24.0381 N   0  0  0  0  0  0  0  0  0  0  0  0
    3.8283  -13.1016   24.8559 C   0  0  0  0  0  0  0  0  0  0  0  0
    3.1280  -13.8202   25.9723 C   0  0  0  0  0  0  0  0  0  0  0  0
    3.5991  -14.8990   26.7013 C   0  0  0  0  0  0  0  0  0  0  0  0
    2.8403  -15.2773   27.7917 N   0  0  0  0  0  0  0  0  0  0  0  0
    1.7891  -14.4956   27.8613 C   0  0  0  0  0  0  0  0  0  0  0  0
    1.5978  -13.3521   26.6019 S   0  0  0  0  0  0  0  0  0  0  0  0
    3.8419   -9.5004   23.9515 C   0  0  0  0  0  0  0  0  0  0  0  0
    4.7329   -8.3235   24.2536 C   0  0  0  0  0  0  0  0  0  0  0  0
    5.8327   -8.7162   24.9384 F   0  0  0  0  0  0  0  0  0  0  0  0
    4.0394   -7.5073   25.0824 F   0  0  0  0  0  0  0  0  0  0  0  0
  1  2  1  0
  2  3  1  0
  2  4  1  0
  4  5  1  0
  5  6  1  0
  6  7  1  0
  7  8  2  0
  8  9  1  0
  9 10  2  0
 10 11  1  0
  2 12  1  0
 12 13  1  0
 13 14  1  0
 13 15  1  0
 11  7  1  0
M  END
>  <inchikey>  (21) 
LPSMHLQTTQNKAM-UHFFFAOYSA-N

>  <energy_score>  (21) 
-49.796243

>  <MoCASSIn MergeScore>  (21) 
0.540513

>  <fragmenstein_outcome>  (21) 
acceptable

>  <tags>  (21) 
BulkDock Fragalysis export;Active site iter1 merge poses;Fragmenstein placed

>  <fragmenstein_runtime>  (21) 
5.680129

>  <original ID>  (21) 
LPSMHLQTTQNKAM-UHFFFAOYSA-N

>  <alias>  (21) 
None

>  <ref_mols>  (21) 
x0414a,x0502c

>  <exports>  (21) 
/opt/xchem-fragalysis-2/maxwin/BulkDock/OUTPUTS/CpKRS_iter1_knitwork_impure_split1000_batch071_302080.sdf;/opt/xchem-fragalysis-2/maxwin/BulkDock/OUTPUTS/CpKRS_iter1_knitwork_impure_fragalysis.sdf;/opt/xchem-fragalysis-2/maxwin/CpKRS_FFF/hippo/filtered_merges.sdf

>  <csv_name>  (21) 
CpKRS_iter1_knitwork_impure_split1000_batch071.csv

>  <SLURM_JOB_NAME>  (21) 
BulkDock.place:CpKRS:CpKRS_iter1_knitwork_impure_split1000_batch071

>  <name>  (21) 
LPSMHLQTTQNKAM-UHFFFAOYSA-N

>  <fragmenstein_error>  (21) 
None

>  <score_inspiration>  (21) 
0.693704

>  <HIPPO Compound ID>  (21) 
5633

>  <scratch_subdir>  (21) 
/opt/xchem-fragalysis-2/maxwin/BulkDock/SCRATCH/302080/C5633-P46

>  <distance_score>  (21) 
0.996325

>  <Merging Algorithm>  (21) 
Knitwork Impure

>  <subsites>  (21) 
None

>  <original SMILES>  (21) 
CC(C)(CNCc1cncs1)CC(F)F

>  <SLURM_JOB_ID>  (21) 
302080

>  <HIPPO Pose ID>  (21) 
7240

>  <fragmenstein_mode>  (21) 
expansion

>  <ref_pdb>  (21) 
filtered_merges_wPDBs_LPSMHLQTTQNKAM-UHFFFAOYSA-N.pdb

$$$$
SGKXJURVPZMNDL-UHFFFAOYSA-N
     RDKit          3D

 13 13  0  0  0  0  0  0  0  0999 V2000
    5.1251   -7.9789   22.0029 C   0  0  0  0  0  0  0  0  0  0  0  0
    5.2220   -8.5130   23.2298 C   0  0  0  0  0  0  0  0  0  0  0  0
    6.1539   -7.9960   24.2784 C   0  0  0  0  0  0  0  0  0  0  0  0
    4.3998   -9.7252   23.5756 C   0  0  0  0  0  0  0  0  0  0  0  0
    5.1867  -10.9772   23.2045 C   0  0  0  0  0  0  0  0  0  0  0  0
    4.2960  -12.1710   22.9077 C   0  0  0  0  0  0  0  0  0  0  0  0
    3.4396  -12.5484   24.0255 N   0  0  0  0  0  0  0  0  0  0  0  0
    4.1747  -13.3479   25.0142 C   0  0  0  0  0  0  0  0  0  0  0  0
    3.3010  -13.9158   26.0872 C   0  0  0  0  0  0  0  0  0  0  0  0
    3.5948  -14.9777   26.9252 C   0  0  0  0  0  0  0  0  0  0  0  0
    2.6807  -15.2363   27.9258 N   0  0  0  0  0  0  0  0  0  0  0  0
    1.6901  -14.3835   27.8140 C   0  0  0  0  0  0  0  0  0  0  0  0
    1.7431  -13.3083   26.4846 S   0  0  0  0  0  0  0  0  0  0  0  0
  1  2  2  0
  2  3  1  0
  2  4  1  0
  4  5  1  0
  5  6  1  0
  6  7  1  0
  7  8  1  0
  8  9  1  0
  9 10  2  0
 10 11  1  0
 11 12  2  0
 12 13  1  0
 13  9  1  0
M  END
>  <inchikey>  (22) 
SGKXJURVPZMNDL-UHFFFAOYSA-N

>  <energy_score>  (22) 
-73.055448

>  <MoCASSIn MergeScore>  (22) 
0.558492

>  <fragmenstein_outcome>  (22) 
acceptable

>  <tags>  (22) 
BulkDock Fragalysis export;Active site iter1 merge poses;Fragmenstein placed

>  <fragmenstein_runtime>  (22) 
2.672786

>  <original ID>  (22) 
SGKXJURVPZMNDL-UHFFFAOYSA-N

>  <alias>  (22) 
None

>  <ref_mols>  (22) 
x0414a,x0502c

>  <exports>  (22) 
/opt/xchem-fragalysis-2/maxwin/BulkDock/OUTPUTS/CpKRS_iter1_knitwork_impure_split1000_batch071_302080.sdf;/opt/xchem-fragalysis-2/maxwin/BulkDock/OUTPUTS/CpKRS_iter1_knitwork_impure_fragalysis.sdf;/opt/xchem-fragalysis-2/maxwin/CpKRS_FFF/hippo/filtered_merges.sdf

>  <csv_name>  (22) 
CpKRS_iter1_knitwork_impure_split1000_batch071.csv

>  <SLURM_JOB_NAME>  (22) 
BulkDock.place:CpKRS:CpKRS_iter1_knitwork_impure_split1000_batch071

>  <name>  (22) 
SGKXJURVPZMNDL-UHFFFAOYSA-N

>  <fragmenstein_error>  (22) 
None

>  <score_inspiration>  (22) 
0.735983

>  <HIPPO Compound ID>  (22) 
5634

>  <scratch_subdir>  (22) 
/opt/xchem-fragalysis-2/maxwin/BulkDock/SCRATCH/302080/C5634-P46

>  <distance_score>  (22) 
0.929384

>  <Merging Algorithm>  (22) 
Knitwork Impure

>  <subsites>  (22) 
None

>  <original SMILES>  (22) 
C=C(C)CCCNCc1cncs1

>  <SLURM_JOB_ID>  (22) 
302080

>  <HIPPO Pose ID>  (22) 
7285

>  <fragmenstein_mode>  (22) 
expansion

>  <ref_pdb>  (22) 
filtered_merges_wPDBs_SGKXJURVPZMNDL-UHFFFAOYSA-N.pdb

$$$$
UKSMBSBRWVHKDT-SNVBAGLBSA-N
     RDKit          3D

 14 14  0  0  0  0  0  0  0  0999 V2000
    3.8811   -9.0802   23.5161 C   0  0  0  0  0  0  0  0  0  0  0  0
    4.2548  -10.4748   22.9981 C   0  0  0  0  0  0  0  0  0  0  0  0
    5.2968  -10.3309   21.8940 C   0  0  0  0  0  0  0  0  0  0  0  0
    4.7288  -11.4478   24.0999 C   0  0  1  0  0  0  0  0  0  0  0  0
    5.6888  -10.7190   24.9522 C   0  0  0  0  0  0  0  0  0  0  0  0
    6.4215  -10.0891   25.5914 N   0  0  0  0  0  0  0  0  0  0  0  0
    3.5398  -11.9474   24.8222 N   0  0  0  0  0  0  0  0  0  0  0  0
    3.3021  -13.3885   24.6138 C   0  0  0  0  0  0  0  0  0  0  0  0
    4.0458  -14.2956   25.6107 C   0  0  0  0  0  0  0  0  0  0  0  0
    3.2406  -14.8442   26.7390 C   0  0  0  0  0  0  0  0  0  0  0  0
    3.6034  -15.9184   27.5875 C   0  0  0  0  0  0  0  0  0  0  0  0
    2.6996  -16.1511   28.5425 N   0  0  0  0  0  0  0  0  0  0  0  0
    1.6796  -15.2455   28.2959 O   0  0  0  0  0  0  0  0  0  0  0  0
    2.0092  -14.4762   27.2272 C   0  0  0  0  0  0  0  0  0  0  0  0
  1  2  1  0
  2  3  1  0
  2  4  1  0
  4  5  1  1
  5  6  3  0
  4  7  1  0
  7  8  1  0
  8  9  1  0
  9 10  1  0
 10 11  1  0
 11 12  2  0
 12 13  1  0
 13 14  1  0
 14 10  2  0
M  END
>  <inchikey>  (23) 
UKSMBSBRWVHKDT-SNVBAGLBSA-N

>  <energy_score>  (23) 
-14.995687

>  <MoCASSIn MergeScore>  (23) 
0.456695

>  <fragmenstein_outcome>  (23) 
acceptable

>  <tags>  (23) 
BulkDock Fragalysis export;Active site iter1 merge poses;Fragmenstein placed

>  <fragmenstein_runtime>  (23) 
3.168904

>  <original ID>  (23) 
UKSMBSBRWVHKDT-SNVBAGLBSA-N

>  <alias>  (23) 
None

>  <ref_mols>  (23) 
x0414a,x0759a

>  <exports>  (23) 
/opt/xchem-fragalysis-2/maxwin/BulkDock/OUTPUTS/CpKRS_iter1_knitwork_impure_split1000_batch113_302122.sdf;/opt/xchem-fragalysis-2/maxwin/BulkDock/OUTPUTS/CpKRS_iter1_knitwork_impure_fragalysis.sdf;/opt/xchem-fragalysis-2/maxwin/CpKRS_FFF/hippo/filtered_merges.sdf

>  <csv_name>  (23) 
CpKRS_iter1_knitwork_impure_split1000_batch113.csv

>  <SLURM_JOB_NAME>  (23) 
BulkDock.place:CpKRS:CpKRS_iter1_knitwork_impure_split1000_batch113

>  <name>  (23) 
UKSMBSBRWVHKDT-SNVBAGLBSA-N

>  <fragmenstein_error>  (23) 
None

>  <score_inspiration>  (23) 
0.648413

>  <HIPPO Compound ID>  (23) 
25113

>  <scratch_subdir>  (23) 
/opt/xchem-fragalysis-2/maxwin/BulkDock/SCRATCH/302122/C25113-P62

>  <distance_score>  (23) 
0.945977

>  <Merging Algorithm>  (23) 
Knitwork Impure

>  <subsites>  (23) 
None

>  <original SMILES>  (23) 
CC(C)[C@@H](C#N)NCCc1cnoc1

>  <SLURM_JOB_ID>  (23) 
302122

>  <HIPPO Pose ID>  (23) 
7475

>  <fragmenstein_mode>  (23) 
expansion

>  <ref_pdb>  (23) 
filtered_merges_wPDBs_UKSMBSBRWVHKDT-SNVBAGLBSA-N.pdb

$$$$
ZYSOSRRVGNXWJM-UHFFFAOYSA-N
     RDKit          3D

 18 18  0  0  0  0  0  0  0  0999 V2000
    0.2561  -11.3072   24.3472 C   0  0  0  0  0  0  0  0  0  0  0  0
    1.6390  -11.6467   24.3427 O   0  0  0  0  0  0  0  0  0  0  0  0
    2.0430  -12.6739   25.1535 C   0  0  0  0  0  0  0  0  0  0  0  0
    1.1957  -13.2876   26.0806 C   0  0  0  0  0  0  0  0  0  0  0  0
    1.6704  -14.3002   26.9167 C   0  0  0  0  0  0  0  0  0  0  0  0
    2.9898  -14.7423   26.8402 C   0  0  0  0  0  0  0  0  0  0  0  0
    3.6019  -15.6461   27.7139 N   0  0  0  0  0  0  0  0  0  0  0  0
    2.7636  -16.5632   28.4011 C   0  0  0  0  0  0  0  0  0  0  0  0
    2.1631  -16.0970   29.6306 N   0  0  0  0  0  0  0  0  0  0  0  0
    3.8191  -14.1306   25.9150 C   0  0  0  0  0  0  0  0  0  0  0  0
    3.3779  -13.1041   25.0682 C   0  0  0  0  0  0  0  0  0  0  0  0
    4.4663  -12.5321   24.2040 C   0  0  0  0  0  0  0  0  0  0  0  0
    5.5524  -12.8404   24.4735 O   0  0  0  0  0  0  0  0  0  0  0  0
    3.9464  -11.5842   23.1320 N   0  0  0  0  0  0  0  0  0  0  0  0
    4.6471  -10.7403   22.2236 C   0  0  0  0  0  0  0  0  0  0  0  0
    4.6623   -9.2863   22.6861 C   0  0  0  0  0  0  0  0  0  0  0  0
    5.2607   -9.0954   24.0791 C   0  0  0  0  0  0  0  0  0  0  0  0
    5.4665   -8.4946   21.6737 C   0  0  0  0  0  0  0  0  0  0  0  0
  1  2  1  0
  2  3  1  0
  3  4  2  0
  4  5  1  0
  5  6  2  0
  6  7  1  0
  7  8  1  0
  8  9  1  0
  6 10  1  0
 10 11  2  0
 11 12  1  0
 12 13  2  0
 12 14  1  0
 14 15  1  0
 15 16  1  0
 16 17  1  0
 16 18  1  0
 11  3  1  0
M  END
>  <inchikey>  (24) 
ZYSOSRRVGNXWJM-UHFFFAOYSA-N

>  <energy_score>  (24) 
-17.876114

>  <MoCASSIn MergeScore>  (24) 
0.67038

>  <fragmenstein_outcome>  (24) 
acceptable

>  <tags>  (24) 
BulkDock Fragalysis export;Active site iter1 merge poses;Fragmenstein placed

>  <fragmenstein_runtime>  (24) 
4.382372

>  <original ID>  (24) 
ZYSOSRRVGNXWJM-UHFFFAOYSA-N

>  <alias>  (24) 
None

>  <ref_mols>  (24) 
x0407b,x0555a

>  <exports>  (24) 
/opt/xchem-fragalysis-2/maxwin/BulkDock/OUTPUTS/CpKRS_iter1_fstein_split1000_batch000_302134.sdf;/opt/xchem-fragalysis-2/maxwin/BulkDock/OUTPUTS/CpKRS_iter1_fstein_fragalysis.sdf;/opt/xchem-fragalysis-2/maxwin/CpKRS_FFF/hippo/filtered_merges.sdf

>  <csv_name>  (24) 
CpKRS_iter1_fstein_split1000_batch000.csv

>  <SLURM_JOB_NAME>  (24) 
BulkDock.place:CpKRS:CpKRS_iter1_fstein_split1000_batch000

>  <name>  (24) 
ZYSOSRRVGNXWJM-UHFFFAOYSA-N

>  <fragmenstein_error>  (24) 
None

>  <score_inspiration>  (24) 
0.699634

>  <HIPPO Compound ID>  (24) 
16190

>  <scratch_subdir>  (24) 
/opt/xchem-fragalysis-2/maxwin/BulkDock/SCRATCH/302134/C16190-P38

>  <distance_score>  (24) 
0.684444

>  <Merging Algorithm>  (24) 
Fragmenstein

>  <subsites>  (24) 
None

>  <original SMILES>  (24) 
COc1ccc(NCN)cc1C(=O)NCC(C)C

>  <SLURM_JOB_ID>  (24) 
302134

>  <HIPPO Pose ID>  (24) 
7546

>  <fragmenstein_mode>  (24) 
expansion

>  <ref_pdb>  (24) 
filtered_merges_wPDBs_ZYSOSRRVGNXWJM-UHFFFAOYSA-N.pdb

$$$$
FOWIBQZSEGCPDF-UHFFFAOYSA-N
     RDKit          3D

 14 14  0  0  0  0  0  0  0  0999 V2000
    6.3899   -8.0081   24.2598 C   0  0  0  0  0  0  0  0  0  0  0  0
    5.0379   -8.3030   23.6303 C   0  0  0  0  0  0  0  0  0  0  0  0
    4.0028   -8.3378   24.7463 C   0  0  0  0  0  0  0  0  0  0  0  0
    5.0116   -9.6046   22.8178 C   0  0  0  0  0  0  0  0  0  0  0  0
    5.3404  -10.8442   23.6507 C   0  0  0  0  0  0  0  0  0  0  0  0
    5.0179  -12.1415   22.9226 C   0  0  0  0  0  0  0  0  0  0  0  0
    3.5360  -12.5080   22.9747 C   0  0  0  0  0  0  0  0  0  0  0  0
    2.9449  -12.7168   24.3024 N   0  0  0  0  0  0  0  0  0  0  0  0
    3.6799  -13.7098   25.1004 C   0  0  0  0  0  0  0  0  0  0  0  0
    2.8782  -14.0959   26.2891 C   0  0  0  0  0  0  0  0  0  0  0  0
    1.8064  -13.4294   26.9215 C   0  0  0  0  0  0  0  0  0  0  0  0
    1.3457  -14.0839   27.9898 N   0  0  0  0  0  0  0  0  0  0  0  0
    2.1468  -15.2114   28.0881 O   0  0  0  0  0  0  0  0  0  0  0  0
    3.0329  -15.2232   27.0622 C   0  0  0  0  0  0  0  0  0  0  0  0
  1  2  1  0
  2  3  1  0
  2  4  1  0
  4  5  1  0
  5  6  1  0
  6  7  1  0
  7  8  1  0
  8  9  1  0
  9 10  1  0
 10 11  1  0
 11 12  2  0
 12 13  1  0
 13 14  1  0
 14 10  2  0
M  END
>  <inchikey>  (25) 
FOWIBQZSEGCPDF-UHFFFAOYSA-N

>  <energy_score>  (25) 
-23.384058

>  <MoCASSIn MergeScore>  (25) 
0.557426

>  <fragmenstein_outcome>  (25) 
acceptable

>  <tags>  (25) 
BulkDock Fragalysis export;Active site iter1 merge poses;Fragmenstein placed

>  <fragmenstein_runtime>  (25) 
2.836159

>  <original ID>  (25) 
FOWIBQZSEGCPDF-UHFFFAOYSA-N

>  <alias>  (25) 
None

>  <ref_mols>  (25) 
x0414a,x0759b

>  <exports>  (25) 
/opt/xchem-fragalysis-2/maxwin/BulkDock/OUTPUTS/CpKRS_iter1_knitwork_impure_split1000_batch115_302124.sdf;/opt/xchem-fragalysis-2/maxwin/BulkDock/OUTPUTS/CpKRS_iter1_knitwork_impure_fragalysis.sdf;/opt/xchem-fragalysis-2/maxwin/CpKRS_FFF/hippo/filtered_merges.sdf

>  <csv_name>  (25) 
CpKRS_iter1_knitwork_impure_split1000_batch115.csv

>  <SLURM_JOB_NAME>  (25) 
BulkDock.place:CpKRS:CpKRS_iter1_knitwork_impure_split1000_batch115

>  <name>  (25) 
FOWIBQZSEGCPDF-UHFFFAOYSA-N

>  <fragmenstein_error>  (25) 
None

>  <score_inspiration>  (25) 
0.74213

>  <HIPPO Compound ID>  (25) 
15059

>  <scratch_subdir>  (25) 
/opt/xchem-fragalysis-2/maxwin/BulkDock/SCRATCH/302124/C15059-P61

>  <distance_score>  (25) 
0.864482

>  <Merging Algorithm>  (25) 
Knitwork Impure

>  <subsites>  (25) 
None

>  <original SMILES>  (25) 
CC(C)CCCCNCc1cnoc1

>  <SLURM_JOB_ID>  (25) 
302124

>  <HIPPO Pose ID>  (25) 
7738

>  <fragmenstein_mode>  (25) 
expansion

>  <ref_pdb>  (25) 
filtered_merges_wPDBs_FOWIBQZSEGCPDF-UHFFFAOYSA-N.pdb

$$$$
CSPKOCOLCQZWDX-UHFFFAOYSA-N
     RDKit          3D

 21 23  0  0  0  0  0  0  0  0999 V2000
    4.0068  -12.4185   23.0664 C   0  0  0  0  0  0  0  0  0  0  0  0
    4.3007  -12.9975   24.4221 C   0  0  0  0  0  0  0  0  0  0  0  0
    5.4816  -13.1555   24.7341 O   0  0  0  0  0  0  0  0  0  0  0  0
    3.2117  -13.4018   25.3604 C   0  0  0  0  0  0  0  0  0  0  0  0
    3.5067  -14.5309   26.1650 C   0  0  0  0  0  0  0  0  0  0  0  0
    4.6628  -15.2043   26.0492 F   0  0  0  0  0  0  0  0  0  0  0  0
    2.6156  -15.0204   27.1132 C   0  0  0  0  0  0  0  0  0  0  0  0
    1.4061  -14.3841   27.2924 C   0  0  0  0  0  0  0  0  0  0  0  0
    1.0911  -13.2814   26.4971 C   0  0  0  0  0  0  0  0  0  0  0  0
    1.9628  -12.7457   25.5102 C   0  0  0  0  0  0  0  0  0  0  0  0
    1.4593  -11.5298   24.7911 C   0  0  0  0  0  0  0  0  0  0  0  0
    0.1108  -11.4801   24.3686 C   0  0  0  0  0  0  0  0  0  0  0  0
   -0.4723  -10.3365   23.7843 C   0  0  0  0  0  0  0  0  0  0  0  0
   -1.8197  -10.3148   23.3913 C   0  0  0  0  0  0  0  0  0  0  0  0
   -2.3734   -9.1788   22.7991 C   0  0  0  0  0  0  0  0  0  0  0  0
   -1.5916   -8.0450   22.5999 C   0  0  0  0  0  0  0  0  0  0  0  0
   -0.2567   -8.0439   23.0011 C   0  0  0  0  0  0  0  0  0  0  0  0
    0.3135   -9.1857   23.5891 C   0  0  0  0  0  0  0  0  0  0  0  0
    1.6554   -9.2157   23.9752 C   0  0  0  0  0  0  0  0  0  0  0  0
    2.2070  -10.3666   24.5532 C   0  0  0  0  0  0  0  0  0  0  0  0
    3.5374  -10.3497   24.8535 O   0  0  0  0  0  0  0  0  0  0  0  0
  1  2  1  0
  2  3  2  0
  2  4  1  0
  4  5  2  0
  5  6  1  0
  5  7  1  0
  7  8  2  0
  8  9  1  0
  9 10  2  0
 10 11  1  0
 11 12  2  0
 12 13  1  0
 13 14  2  0
 14 15  1  0
 15 16  2  0
 16 17  1  0
 17 18  2  0
 18 19  1  0
 19 20  2  0
 20 21  1  0
 10  4  1  0
 20 11  1  0
 18 13  1  0
M  END
>  <inchikey>  (26) 
CSPKOCOLCQZWDX-UHFFFAOYSA-N

>  <energy_score>  (26) 
-7.624537

>  <MoCASSIn MergeScore>  (26) 
0.398898

>  <fragmenstein_outcome>  (26) 
acceptable

>  <tags>  (26) 
BulkDock Fragalysis export;Active site iter1 merge poses;Fragmenstein placed

>  <fragmenstein_runtime>  (26) 
2.277598

>  <original ID>  (26) 
CSPKOCOLCQZWDX-UHFFFAOYSA-N

>  <alias>  (26) 
None

>  <ref_mols>  (26) 
x0555a,x0504b

>  <exports>  (26) 
/opt/xchem-fragalysis-2/maxwin/BulkDock/OUTPUTS/CpKRS_iter1_fstein_split1000_batch000_302134.sdf;/opt/xchem-fragalysis-2/maxwin/BulkDock/OUTPUTS/CpKRS_iter1_fstein_fragalysis.sdf;/opt/xchem-fragalysis-2/maxwin/CpKRS_FFF/hippo/filtered_merges.sdf

>  <csv_name>  (26) 
CpKRS_iter1_fstein_split1000_batch000.csv

>  <SLURM_JOB_NAME>  (26) 
BulkDock.place:CpKRS:CpKRS_iter1_fstein_split1000_batch000

>  <name>  (26) 
CSPKOCOLCQZWDX-UHFFFAOYSA-N

>  <fragmenstein_error>  (26) 
None

>  <score_inspiration>  (26) 
0.420341

>  <HIPPO Compound ID>  (26) 
16206

>  <scratch_subdir>  (26) 
/opt/xchem-fragalysis-2/maxwin/BulkDock/SCRATCH/302134/C16206-P38

>  <distance_score>  (26) 
0.99362

>  <Merging Algorithm>  (26) 
Fragmenstein

>  <subsites>  (26) 
None

>  <original SMILES>  (26) 
CC(=O)c1c(F)cccc1-c1cc2ccccc2cc1O

>  <SLURM_JOB_ID>  (26) 
302134

>  <HIPPO Pose ID>  (26) 
7804

>  <fragmenstein_mode>  (26) 
expansion

>  <ref_pdb>  (26) 
filtered_merges_wPDBs_CSPKOCOLCQZWDX-UHFFFAOYSA-N.pdb

$$$$
QCMBMCNEXNYOFQ-SNVBAGLBSA-N
     RDKit          3D

 15 16  0  0  0  0  0  0  0  0999 V2000
    5.9124   -7.4253   24.3509 C   0  0  0  0  0  0  0  0  0  0  0  0
    5.4066   -8.4138   23.6079 C   0  0  0  0  0  0  0  0  0  0  0  0
    5.1658   -8.3598   22.1359 C   0  0  0  0  0  0  0  0  0  0  0  0
    4.9362   -9.8245   21.8044 C   0  0  0  0  0  0  0  0  0  0  0  0
    4.1979  -10.3099   22.9735 N   0  0  0  0  0  0  0  0  0  0  0  0
    4.1025  -11.7827   23.0324 C   0  0  0  0  0  0  0  0  0  0  0  0
    3.1857  -12.3622   24.1736 C   0  0  2  0  0  0  0  0  0  0  0  0
    2.5737  -11.2904   24.9680 N   0  0  0  0  0  0  0  0  0  0  0  0
    3.9941  -13.3493   25.0350 C   0  0  0  0  0  0  0  0  0  0  0  0
    3.3069  -14.0747   26.1613 C   0  0  0  0  0  0  0  0  0  0  0  0
    3.8772  -15.0498   26.9642 C   0  0  0  0  0  0  0  0  0  0  0  0
    3.1174  -15.5010   28.0229 N   0  0  0  0  0  0  0  0  0  0  0  0
    1.9568  -14.8912   27.9933 C   0  0  0  0  0  0  0  0  0  0  0  0
    1.6946  -13.8122   26.6890 S   0  0  0  0  0  0  0  0  0  0  0  0
    4.9496   -9.7483   24.1153 C   0  0  0  0  0  0  0  0  0  0  0  0
  1  2  2  0
  2  3  1  0
  3  4  1  0
  4  5  1  0
  5  6  1  0
  6  7  1  0
  7  8  1  1
  7  9  1  0
  9 10  1  0
 10 11  2  0
 11 12  1  0
 12 13  2  0
 13 14  1  0
  5 15  1  0
 15  2  1  0
 14 10  1  0
M  END
>  <inchikey>  (27) 
QCMBMCNEXNYOFQ-SNVBAGLBSA-N

>  <energy_score>  (27) 
-59.115315

>  <MoCASSIn MergeScore>  (27) 
0.411926

>  <fragmenstein_outcome>  (27) 
acceptable

>  <tags>  (27) 
BulkDock Fragalysis export;Active site iter1 merge poses;Fragmenstein placed

>  <fragmenstein_runtime>  (27) 
2.421151

>  <original ID>  (27) 
QCMBMCNEXNYOFQ-SNVBAGLBSA-N

>  <alias>  (27) 
None

>  <ref_mols>  (27) 
x0414a,x0502a

>  <exports>  (27) 
/opt/xchem-fragalysis-2/maxwin/BulkDock/OUTPUTS/CpKRS_iter1_knitwork_pure_split1000_batch009_301900.sdf;/opt/xchem-fragalysis-2/maxwin/BulkDock/OUTPUTS/CpKRS_iter1_knitwork_pure_fragalysis.sdf;/opt/xchem-fragalysis-2/maxwin/CpKRS_FFF/hippo/filtered_merges.sdf

>  <csv_name>  (27) 
CpKRS_iter1_knitwork_pure_split1000_batch009.csv

>  <SLURM_JOB_NAME>  (27) 
BulkDock.place:CpKRS:CpKRS_iter1_knitwork_pure_split1000_batch009

>  <name>  (27) 
QCMBMCNEXNYOFQ-SNVBAGLBSA-N

>  <fragmenstein_error>  (27) 
None

>  <score_inspiration>  (27) 
0.559943

>  <HIPPO Compound ID>  (27) 
1192

>  <scratch_subdir>  (27) 
/opt/xchem-fragalysis-2/maxwin/BulkDock/SCRATCH/301900/C1192-P45

>  <distance_score>  (27) 
0.863406

>  <Merging Algorithm>  (27) 
Knitwork Pure

>  <subsites>  (27) 
None

>  <original SMILES>  (27) 
C=C1CCN(C[C@H](N)Cc2cncs2)C1

>  <SLURM_JOB_ID>  (27) 
301900

>  <HIPPO Pose ID>  (27) 
7925

>  <fragmenstein_mode>  (27) 
expansion

>  <ref_pdb>  (27) 
filtered_merges_wPDBs_QCMBMCNEXNYOFQ-SNVBAGLBSA-N.pdb

$$$$
HWBNRJAIGLVGAV-CYBMUJFWSA-N
     RDKit          3D

 17 17  0  0  0  0  0  0  0  0999 V2000
    5.7612   -7.5373   23.6943 C   0  0  0  0  0  0  0  0  0  0  0  0
    5.3661   -9.0212   23.5276 C   0  0  0  0  0  0  0  0  0  0  0  0
    5.9876   -9.5051   22.2140 C   0  0  0  0  0  0  0  0  0  0  0  0
    6.0102   -9.6973   24.7159 C   0  0  0  0  0  0  0  0  0  0  0  0
    3.8179   -9.3105   23.4720 C   0  0  0  0  0  0  0  0  0  0  0  0
    3.0888   -8.9302   24.7548 C   0  0  0  0  0  0  0  0  0  0  0  0
    3.2672   -8.4145   22.3662 C   0  0  0  0  0  0  0  0  0  0  0  0
    3.5458  -10.8262   23.1332 C   0  0  0  0  0  0  0  0  0  0  0  0
    2.2246  -11.3984   23.4381 N   0  0  0  0  0  0  0  0  0  0  0  0
    2.1466  -12.2381   24.6589 C   0  0  0  0  0  0  0  0  0  0  0  0
    3.3882  -13.0782   24.9551 C   0  0  0  0  0  0  0  0  0  0  0  0
    3.2308  -14.3136   25.8435 C   0  0  1  0  0  0  0  0  0  0  0  0
    4.6217  -14.7454   26.3035 C   0  0  0  0  0  0  0  0  0  0  0  0
    4.5924  -15.9472   27.2193 C   0  0  0  0  0  0  0  0  0  0  0  0
    3.5180  -15.8477   28.2867 C   0  0  0  0  0  0  0  0  0  0  0  0
    2.2044  -15.5257   27.7333 N   0  0  0  0  0  0  0  0  0  0  0  0
    2.2398  -14.2474   27.0014 C   0  0  0  0  0  0  0  0  0  0  0  0
  1  2  1  0
  2  3  1  0
  2  4  1  0
  2  5  1  0
  5  6  1  0
  5  7  1  0
  5  8  1  0
  8  9  1  0
  9 10  1  0
 10 11  1  0
 12 11  1  1
 12 13  1  0
 13 14  1  0
 14 15  1  0
 15 16  1  0
 16 17  1  0
 17 12  1  0
M  END
>  <inchikey>  (28) 
HWBNRJAIGLVGAV-CYBMUJFWSA-N

>  <energy_score>  (28) 
-42.689551

>  <MoCASSIn MergeScore>  (28) 
0.278351

>  <fragmenstein_outcome>  (28) 
acceptable

>  <tags>  (28) 
BulkDock Fragalysis export;Active site iter1 merge poses;Fragmenstein placed

>  <fragmenstein_runtime>  (28) 
99.635694

>  <original ID>  (28) 
HWBNRJAIGLVGAV-CYBMUJFWSA-N

>  <alias>  (28) 
None

>  <ref_mols>  (28) 
x0414a,x0489a

>  <exports>  (28) 
/opt/xchem-fragalysis-2/maxwin/BulkDock/OUTPUTS/CpKRS_iter1_knitwork_impure_split1000_batch050_302059.sdf;/opt/xchem-fragalysis-2/maxwin/BulkDock/OUTPUTS/CpKRS_iter1_knitwork_impure_fragalysis.sdf;/opt/xchem-fragalysis-2/maxwin/CpKRS_FFF/hippo/filtered_merges.sdf

>  <csv_name>  (28) 
CpKRS_iter1_knitwork_impure_split1000_batch050.csv

>  <SLURM_JOB_NAME>  (28) 
BulkDock.place:CpKRS:CpKRS_iter1_knitwork_impure_split1000_batch050

>  <name>  (28) 
HWBNRJAIGLVGAV-CYBMUJFWSA-N

>  <fragmenstein_error>  (28) 
None

>  <score_inspiration>  (28) 
0.39149

>  <HIPPO Compound ID>  (28) 
18104

>  <scratch_subdir>  (28) 
/opt/xchem-fragalysis-2/maxwin/BulkDock/SCRATCH/302059/C18104-P33

>  <distance_score>  (28) 
0.991379

>  <Merging Algorithm>  (28) 
Knitwork Impure

>  <subsites>  (28) 
None

>  <original SMILES>  (28) 
CC(C)(C)C(C)(C)CNCC[C@H]1CCCNC1

>  <SLURM_JOB_ID>  (28) 
302059

>  <HIPPO Pose ID>  (28) 
8075

>  <fragmenstein_mode>  (28) 
expansion

>  <ref_pdb>  (28) 
filtered_merges_wPDBs_HWBNRJAIGLVGAV-CYBMUJFWSA-N.pdb

$$$$
FDPXXOHMBCOUIR-UHFFFAOYSA-N
     RDKit          3D

 21 23  0  0  0  0  0  0  0  0999 V2000
    5.2340   -7.5489   25.4759 C   0  0  0  0  0  0  0  0  0  0  0  0
    5.0976   -8.3962   24.2412 C   0  0  0  0  0  0  0  0  0  0  0  0
    6.0958   -8.3385   23.2729 C   0  0  0  0  0  0  0  0  0  0  0  0
    6.0363   -9.1360   22.1373 C   0  0  0  0  0  0  0  0  0  0  0  0
    5.0423  -10.0774   21.9949 C   0  0  0  0  0  0  0  0  0  0  0  0
    4.0310  -10.1670   22.9459 C   0  0  0  0  0  0  0  0  0  0  0  0
    2.9724  -11.1943   22.6998 C   0  0  0  0  0  0  0  0  0  0  0  0
    2.6245  -12.0034   23.8024 N   0  0  0  0  0  0  0  0  0  0  0  0
    3.4843  -12.9320   24.6677 C   0  0  0  0  0  0  0  0  0  0  0  0
    4.6024  -13.2392   24.5640 O   0  0  0  0  0  0  0  0  0  0  0  0
    2.6276  -13.4331   25.7557 C   0  0  0  0  0  0  0  0  0  0  0  0
    1.0129  -12.8580   25.9507 S   0  0  0  0  0  0  0  0  0  0  0  0
    0.8287  -13.6555   27.4220 C   0  0  0  0  0  0  0  0  0  0  0  0
    1.9080  -14.4366   27.7351 C   0  0  0  0  0  0  0  0  0  0  0  0
    2.9228  -14.3640   26.7319 C   0  0  0  0  0  0  0  0  0  0  0  0
    4.1684  -15.1617   26.8678 C   0  0  0  0  0  0  0  0  0  0  0  0
    4.0281  -16.1833   27.9953 C   0  0  0  0  0  0  0  0  0  0  0  0
    3.3952  -15.6977   29.1832 O   0  0  0  0  0  0  0  0  0  0  0  0
    2.0579  -15.2613   28.9560 C   0  0  0  0  0  0  0  0  0  0  0  0
    4.0056   -9.2533   24.0239 C   0  0  0  0  0  0  0  0  0  0  0  0
    2.7888   -9.1772   24.8890 C   0  0  0  0  0  0  0  0  0  0  0  0
  1  2  1  0
  2  3  2  0
  3  4  1  0
  4  5  2  0
  5  6  1  0
  6  7  1  0
  7  8  1  0
  8  9  1  0
  9 10  2  0
  9 11  1  0
 11 12  1  0
 12 13  1  0
 13 14  2  0
 14 15  1  0
 15 16  1  0
 16 17  1  0
 17 18  1  0
 18 19  1  0
  6 20  2  0
 20 21  1  0
 20  2  1  0
 15 11  2  0
 19 14  1  0
M  END
>  <inchikey>  (29) 
FDPXXOHMBCOUIR-UHFFFAOYSA-N

>  <energy_score>  (29) 
-29.840741

>  <MoCASSIn MergeScore>  (29) 
0.533243

>  <fragmenstein_outcome>  (29) 
acceptable

>  <tags>  (29) 
BulkDock Fragalysis export;Active site iter1 merge poses;Fragmenstein placed

>  <fragmenstein_runtime>  (29) 
5.0275

>  <original ID>  (29) 
FDPXXOHMBCOUIR-UHFFFAOYSA-N

>  <alias>  (29) 
None

>  <ref_mols>  (29) 
x0502c,x0504a

>  <exports>  (29) 
/opt/xchem-fragalysis-2/maxwin/BulkDock/OUTPUTS/CpKRS_iter1_fstein_split1000_batch000_302134.sdf;/opt/xchem-fragalysis-2/maxwin/BulkDock/OUTPUTS/CpKRS_iter1_fstein_fragalysis.sdf;/opt/xchem-fragalysis-2/maxwin/CpKRS_FFF/hippo/filtered_merges.sdf

>  <csv_name>  (29) 
CpKRS_iter1_fstein_split1000_batch000.csv

>  <SLURM_JOB_NAME>  (29) 
BulkDock.place:CpKRS:CpKRS_iter1_fstein_split1000_batch000

>  <name>  (29) 
FDPXXOHMBCOUIR-UHFFFAOYSA-N

>  <fragmenstein_error>  (29) 
None

>  <score_inspiration>  (29) 
0.495937

>  <HIPPO Compound ID>  (29) 
16312

>  <scratch_subdir>  (29) 
/opt/xchem-fragalysis-2/maxwin/BulkDock/SCRATCH/302134/C16312-P46

>  <distance_score>  (29) 
0.862933

>  <Merging Algorithm>  (29) 
Fragmenstein

>  <subsites>  (29) 
None

>  <original SMILES>  (29) 
Cc1cccc(CNC(=O)c2scc3c2CCOC3)c1C

>  <SLURM_JOB_ID>  (29) 
302134

>  <HIPPO Pose ID>  (29) 
8520

>  <fragmenstein_mode>  (29) 
expansion

>  <ref_pdb>  (29) 
filtered_merges_wPDBs_FDPXXOHMBCOUIR-UHFFFAOYSA-N.pdb

$$$$
OSTPTEJPDWWSRG-CYBMUJFWSA-N
     RDKit          3D

 19 20  0  0  0  0  0  0  0  0999 V2000
    0.9843  -15.1376   29.7803 C   0  0  0  0  0  0  0  0  0  0  0  0
    2.0426  -15.5506   28.7832 C   0  0  0  0  0  0  0  0  0  0  0  0
    2.1925  -14.6530   27.6040 C   0  0  0  0  0  0  0  0  0  0  0  0
    1.2767  -13.7156   27.1789 C   0  0  0  0  0  0  0  0  0  0  0  0
    1.7536  -12.9206   25.7723 S   0  0  0  0  0  0  0  0  0  0  0  0
    3.2726  -13.7287   25.7557 C   0  0  0  0  0  0  0  0  0  0  0  0
    4.3344  -13.2700   24.8539 C   0  0  0  0  0  0  0  0  0  0  0  0
    5.4547  -13.4962   25.0771 O   0  0  0  0  0  0  0  0  0  0  0  0
    3.6922  -12.4277   23.7451 N   0  0  0  0  0  0  0  0  0  0  0  0
    4.2840  -11.6174   22.7443 C   0  0  0  0  0  0  0  0  0  0  0  0
    4.0181  -10.1454   23.0905 C   0  0  1  0  0  0  0  0  0  0  0  0
    4.0835   -9.8325   24.5923 C   0  0  0  0  0  0  0  0  0  0  0  0
    4.6736   -8.4443   24.7315 C   0  0  0  0  0  0  0  0  0  0  0  0
    5.7095   -8.4497   23.6332 C   0  0  0  0  0  0  0  0  0  0  0  0
    4.9741   -9.1184   22.4654 C   0  0  0  0  0  0  0  0  0  0  0  0
    5.9431   -9.6910   21.4888 C   0  0  0  0  0  0  0  0  0  0  0  0
    4.1888   -8.0999   21.6891 C   0  0  0  0  0  0  0  0  0  0  0  0
    3.3346  -14.7142   26.7252 C   0  0  0  0  0  0  0  0  0  0  0  0
    4.4551  -15.6901   26.8844 C   0  0  0  0  0  0  0  0  0  0  0  0
  1  2  1  0
  2  3  1  0
  3  4  2  0
  4  5  1  0
  5  6  1  0
  6  7  1  0
  7  8  2  0
  7  9  1  0
  9 10  1  0
 11 10  1  1
 11 12  1  0
 12 13  1  0
 13 14  1  0
 14 15  1  0
 15 16  1  0
 15 17  1  0
  6 18  2  0
 18 19  1  0
 18  3  1  0
 15 11  1  0
M  END
>  <inchikey>  (30) 
OSTPTEJPDWWSRG-CYBMUJFWSA-N

>  <energy_score>  (30) 
-9.881292

>  <MoCASSIn MergeScore>  (30) 
0.60488

>  <fragmenstein_outcome>  (30) 
acceptable

>  <tags>  (30) 
BulkDock Fragalysis export;Active site iter1 merge poses;Fragmenstein placed

>  <fragmenstein_runtime>  (30) 
4.823109

>  <original ID>  (30) 
OSTPTEJPDWWSRG-CYBMUJFWSA-N

>  <alias>  (30) 
None

>  <ref_mols>  (30) 
x0502c,x0634a

>  <exports>  (30) 
/opt/xchem-fragalysis-2/maxwin/BulkDock/OUTPUTS/CpKRS_iter1_fstein_split1000_batch000_302134.sdf;/opt/xchem-fragalysis-2/maxwin/BulkDock/OUTPUTS/CpKRS_iter1_fstein_fragalysis.sdf;/opt/xchem-fragalysis-2/maxwin/CpKRS_FFF/hippo/filtered_merges.sdf

>  <csv_name>  (30) 
CpKRS_iter1_fstein_split1000_batch000.csv

>  <SLURM_JOB_NAME>  (30) 
BulkDock.place:CpKRS:CpKRS_iter1_fstein_split1000_batch000

>  <name>  (30) 
OSTPTEJPDWWSRG-CYBMUJFWSA-N

>  <fragmenstein_error>  (30) 
None

>  <score_inspiration>  (30) 
0.655767

>  <HIPPO Compound ID>  (30) 
16314

>  <scratch_subdir>  (30) 
/opt/xchem-fragalysis-2/maxwin/BulkDock/SCRATCH/302134/C16314-P46

>  <distance_score>  (30) 
0.711995

>  <Merging Algorithm>  (30) 
Fragmenstein

>  <subsites>  (30) 
None

>  <original SMILES>  (30) 
CCc1csc(C(=O)NC[C@H]2CCCC2(C)C)c1C

>  <SLURM_JOB_ID>  (30) 
302134

>  <HIPPO Pose ID>  (30) 
8540

>  <fragmenstein_mode>  (30) 
expansion

>  <ref_pdb>  (30) 
filtered_merges_wPDBs_OSTPTEJPDWWSRG-CYBMUJFWSA-N.pdb

$$$$
PCYGYXDHHYJWIB-RKDXNWHRSA-N
     RDKit          3D

 15 16  0  0  0  0  0  0  0  0999 V2000
    2.6812  -11.1927   25.0156 N   0  0  0  0  0  0  0  0  0  0  0  0
    3.2123  -12.2744   24.1789 C   0  0  2  0  0  0  0  0  0  0  0  0
    4.0050  -13.3122   24.9947 C   0  0  0  0  0  0  0  0  0  0  0  0
    3.3152  -14.0347   26.1220 C   0  0  0  0  0  0  0  0  0  0  0  0
    3.8820  -15.0073   26.9303 C   0  0  0  0  0  0  0  0  0  0  0  0
    3.1152  -15.4599   27.9836 N   0  0  0  0  0  0  0  0  0  0  0  0
    1.9537  -14.8524   27.9449 C   0  0  0  0  0  0  0  0  0  0  0  0
    1.6977  -13.7760   26.6369 S   0  0  0  0  0  0  0  0  0  0  0  0
    4.1109  -11.7074   23.0181 C   0  0  0  0  0  0  0  0  0  0  0  0
    4.2470  -10.2350   22.9694 N   0  0  0  0  0  0  0  0  0  0  0  0
    4.9021   -9.7549   21.7540 C   0  0  0  0  0  0  0  0  0  0  0  0
    5.2233   -8.3270   22.1245 C   0  0  0  0  0  0  0  0  0  0  0  0
    5.7863   -8.4787   23.5160 C   0  0  1  0  0  0  0  0  0  0  0  0
    5.5445   -7.3596   24.2328 F   0  0  0  0  0  0  0  0  0  0  0  0
    5.0584   -9.6934   24.0852 C   0  0  0  0  0  0  0  0  0  0  0  0
  2  1  1  1
  2  3  1  0
  3  4  1  0
  4  5  2  0
  5  6  1  0
  6  7  2  0
  7  8  1  0
  2  9  1  0
  9 10  1  0
 10 11  1  0
 11 12  1  0
 12 13  1  0
 13 14  1  1
 13 15  1  0
  8  4  1  0
 15 10  1  0
M  END
>  <inchikey>  (31) 
PCYGYXDHHYJWIB-RKDXNWHRSA-N

>  <energy_score>  (31) 
-71.560047

>  <MoCASSIn MergeScore>  (31) 
0.41767

>  <fragmenstein_outcome>  (31) 
acceptable

>  <tags>  (31) 
BulkDock Fragalysis export;Active site iter1 merge poses;Fragmenstein placed

>  <fragmenstein_runtime>  (31) 
2.069632

>  <original ID>  (31) 
PCYGYXDHHYJWIB-RKDXNWHRSA-N

>  <alias>  (31) 
None

>  <ref_mols>  (31) 
x0414a,x0502a

>  <exports>  (31) 
/opt/xchem-fragalysis-2/maxwin/BulkDock/OUTPUTS/CpKRS_iter1_knitwork_pure_split1000_batch009_301900.sdf;/opt/xchem-fragalysis-2/maxwin/BulkDock/OUTPUTS/CpKRS_iter1_knitwork_pure_fragalysis.sdf;/opt/xchem-fragalysis-2/maxwin/CpKRS_FFF/hippo/filtered_merges.sdf

>  <csv_name>  (31) 
CpKRS_iter1_knitwork_pure_split1000_batch009.csv

>  <SLURM_JOB_NAME>  (31) 
BulkDock.place:CpKRS:CpKRS_iter1_knitwork_pure_split1000_batch009

>  <name>  (31) 
PCYGYXDHHYJWIB-RKDXNWHRSA-N

>  <fragmenstein_error>  (31) 
None

>  <score_inspiration>  (31) 
0.569808

>  <HIPPO Compound ID>  (31) 
1257

>  <scratch_subdir>  (31) 
/opt/xchem-fragalysis-2/maxwin/BulkDock/SCRATCH/301900/C1257-P45

>  <distance_score>  (31) 
0.789255

>  <Merging Algorithm>  (31) 
Knitwork Pure

>  <subsites>  (31) 
None

>  <original SMILES>  (31) 
N[C@H](Cc1cncs1)CN1CC[C@@H](F)C1

>  <SLURM_JOB_ID>  (31) 
301900

>  <HIPPO Pose ID>  (31) 
8542

>  <fragmenstein_mode>  (31) 
expansion

>  <ref_pdb>  (31) 
filtered_merges_wPDBs_PCYGYXDHHYJWIB-RKDXNWHRSA-N.pdb

$$$$
SOTNQVGCYYMSLJ-UHFFFAOYSA-N
     RDKit          3D

 18 19  0  0  0  0  0  0  0  0999 V2000
    2.5798   -9.1532   24.7937 C   0  0  0  0  0  0  0  0  0  0  0  0
    3.7779   -9.3120   23.9179 C   0  0  0  0  0  0  0  0  0  0  0  0
    4.7767   -8.3398   23.9695 C   0  0  0  0  0  0  0  0  0  0  0  0
    5.8150   -8.3593   23.0540 C   0  0  0  0  0  0  0  0  0  0  0  0
    5.8738   -9.3584   22.0946 C   0  0  0  0  0  0  0  0  0  0  0  0
    4.9470  -10.3893   22.0983 C   0  0  0  0  0  0  0  0  0  0  0  0
    3.8923  -10.3836   23.0146 C   0  0  0  0  0  0  0  0  0  0  0  0
    2.8932  -11.5004   22.9645 C   0  0  0  0  0  0  0  0  0  0  0  0
    2.7846  -12.2338   24.1834 N   0  0  0  0  0  0  0  0  0  0  0  0
    3.7957  -13.1543   24.8901 C   0  0  0  0  0  0  0  0  0  0  0  0
    4.9046  -13.3991   24.6292 O   0  0  0  0  0  0  0  0  0  0  0  0
    3.1266  -13.7996   26.0497 C   0  0  0  0  0  0  0  0  0  0  0  0
    1.5333  -13.3117   26.5305 S   0  0  0  0  0  0  0  0  0  0  0  0
    1.5277  -14.3608   27.8619 C   0  0  0  0  0  0  0  0  0  0  0  0
    2.6445  -15.1435   27.8744 C   0  0  0  0  0  0  0  0  0  0  0  0
    2.8253  -16.1146   28.7818 F   0  0  0  0  0  0  0  0  0  0  0  0
    3.6011  -14.8166   26.8775 C   0  0  0  0  0  0  0  0  0  0  0  0
    4.9137  -15.5071   26.7783 C   0  0  0  0  0  0  0  0  0  0  0  0
  1  2  1  0
  2  3  2  0
  3  4  1  0
  4  5  2  0
  5  6  1  0
  6  7  2  0
  7  8  1  0
  8  9  1  0
  9 10  1  0
 10 11  2  0
 10 12  1  0
 12 13  1  0
 13 14  1  0
 14 15  2  0
 15 16  1  0
 15 17  1  0
 17 18  1  0
  7  2  1  0
 17 12  2  0
M  END
>  <inchikey>  (32) 
SOTNQVGCYYMSLJ-UHFFFAOYSA-N

>  <energy_score>  (32) 
-0.861496

>  <MoCASSIn MergeScore>  (32) 
0.66782

>  <fragmenstein_outcome>  (32) 
acceptable

>  <tags>  (32) 
BulkDock Fragalysis export;Active site iter1 merge poses;Fragmenstein placed

>  <fragmenstein_runtime>  (32) 
4.131647

>  <original ID>  (32) 
SOTNQVGCYYMSLJ-UHFFFAOYSA-N

>  <alias>  (32) 
None

>  <ref_mols>  (32) 
x0502c,x0787b

>  <exports>  (32) 
/opt/xchem-fragalysis-2/maxwin/BulkDock/OUTPUTS/CpKRS_iter1_fstein_split1000_batch000_302134.sdf;/opt/xchem-fragalysis-2/maxwin/BulkDock/OUTPUTS/CpKRS_iter1_fstein_fragalysis.sdf;/opt/xchem-fragalysis-2/maxwin/CpKRS_FFF/hippo/filtered_merges.sdf

>  <csv_name>  (32) 
CpKRS_iter1_fstein_split1000_batch000.csv

>  <SLURM_JOB_NAME>  (32) 
BulkDock.place:CpKRS:CpKRS_iter1_fstein_split1000_batch000

>  <name>  (32) 
SOTNQVGCYYMSLJ-UHFFFAOYSA-N

>  <fragmenstein_error>  (32) 
None

>  <score_inspiration>  (32) 
0.679561

>  <HIPPO Compound ID>  (32) 
16321

>  <scratch_subdir>  (32) 
/opt/xchem-fragalysis-2/maxwin/BulkDock/SCRATCH/302134/C16321-P46

>  <distance_score>  (32) 
0.916896

>  <Merging Algorithm>  (32) 
Fragmenstein

>  <subsites>  (32) 
None

>  <original SMILES>  (32) 
Cc1ccccc1CNC(=O)c1scc(F)c1C

>  <SLURM_JOB_ID>  (32) 
302134

>  <HIPPO Pose ID>  (32) 
8580

>  <fragmenstein_mode>  (32) 
expansion

>  <ref_pdb>  (32) 
filtered_merges_wPDBs_SOTNQVGCYYMSLJ-UHFFFAOYSA-N.pdb

$$$$
HWVMIPKSWPLLMG-UHFFFAOYSA-N
     RDKit          3D

 18 19  0  0  0  0  0  0  0  0999 V2000
    5.0343  -15.6444   27.1183 C   0  0  0  0  0  0  0  0  0  0  0  0
    3.7078  -14.9830   27.1030 C   0  0  0  0  0  0  0  0  0  0  0  0
    2.7200  -15.2373   28.0862 C   0  0  0  0  0  0  0  0  0  0  0  0
    2.9003  -16.0958   29.1010 F   0  0  0  0  0  0  0  0  0  0  0  0
    1.5870  -14.4906   27.9514 C   0  0  0  0  0  0  0  0  0  0  0  0
    1.6469  -13.5360   26.5466 S   0  0  0  0  0  0  0  0  0  0  0  0
    3.2616  -14.0443   26.1779 C   0  0  0  0  0  0  0  0  0  0  0  0
    4.0059  -13.4721   25.0306 C   0  0  0  0  0  0  0  0  0  0  0  0
    5.1511  -13.6497   24.9242 O   0  0  0  0  0  0  0  0  0  0  0  0
    3.0401  -12.6706   24.1532 N   0  0  0  0  0  0  0  0  0  0  0  0
    3.2540  -11.9984   22.9144 C   0  0  0  0  0  0  0  0  0  0  0  0
    3.9838  -10.6954   23.0772 C   0  0  0  0  0  0  0  0  0  0  0  0
    5.0186  -10.3828   22.1920 C   0  0  0  0  0  0  0  0  0  0  0  0
    5.7238   -9.1938   22.3251 C   0  0  0  0  0  0  0  0  0  0  0  0
    5.4498   -8.3312   23.3818 C   0  0  0  0  0  0  0  0  0  0  0  0
    4.4211   -8.6307   24.2730 C   0  0  0  0  0  0  0  0  0  0  0  0
    3.6544   -9.7726   24.0758 C   0  0  0  0  0  0  0  0  0  0  0  0
    2.5327  -10.0169   24.8073 O   0  0  0  0  0  0  0  0  0  0  0  0
  1  2  1  0
  2  3  1  0
  3  4  1  0
  3  5  2  0
  5  6  1  0
  6  7  1  0
  7  8  1  0
  8  9  2  0
  8 10  1  0
 10 11  1  0
 11 12  1  0
 12 13  2  0
 13 14  1  0
 14 15  2  0
 15 16  1  0
 16 17  2  0
 17 18  1  0
  7  2  2  0
 17 12  1  0
M  END
>  <inchikey>  (33) 
HWVMIPKSWPLLMG-UHFFFAOYSA-N

>  <energy_score>  (33) 
-28.897595

>  <MoCASSIn MergeScore>  (33) 
0.702748

>  <fragmenstein_outcome>  (33) 
acceptable

>  <tags>  (33) 
BulkDock Fragalysis export;Active site iter1 merge poses;Fragmenstein placed

>  <fragmenstein_runtime>  (33) 
2.711693

>  <original ID>  (33) 
HWVMIPKSWPLLMG-UHFFFAOYSA-N

>  <alias>  (33) 
None

>  <ref_mols>  (33) 
x0502a,x0504a

>  <exports>  (33) 
/opt/xchem-fragalysis-2/maxwin/BulkDock/OUTPUTS/CpKRS_iter1_fstein_split1000_batch000_302134.sdf;/opt/xchem-fragalysis-2/maxwin/BulkDock/OUTPUTS/CpKRS_iter1_fstein_fragalysis.sdf;/opt/xchem-fragalysis-2/maxwin/CpKRS_FFF/hippo/filtered_merges.sdf

>  <csv_name>  (33) 
CpKRS_iter1_fstein_split1000_batch000.csv

>  <SLURM_JOB_NAME>  (33) 
BulkDock.place:CpKRS:CpKRS_iter1_fstein_split1000_batch000

>  <name>  (33) 
HWVMIPKSWPLLMG-UHFFFAOYSA-N

>  <fragmenstein_error>  (33) 
None

>  <score_inspiration>  (33) 
0.635197

>  <HIPPO Compound ID>  (33) 
16345

>  <scratch_subdir>  (33) 
/opt/xchem-fragalysis-2/maxwin/BulkDock/SCRATCH/302134/C16345-P45

>  <distance_score>  (33) 
0.749824

>  <Merging Algorithm>  (33) 
Fragmenstein

>  <subsites>  (33) 
None

>  <original SMILES>  (33) 
Cc1c(F)csc1C(=O)NCc1ccccc1O

>  <SLURM_JOB_ID>  (33) 
302134

>  <HIPPO Pose ID>  (33) 
8641

>  <fragmenstein_mode>  (33) 
expansion

>  <ref_pdb>  (33) 
filtered_merges_wPDBs_HWVMIPKSWPLLMG-UHFFFAOYSA-N.pdb

$$$$
WYFMZCMUDFTPIA-AEJSXWLSSA-N
     RDKit          3D

 15 17  0  0  0  0  0  0  0  0999 V2000
    1.5901  -12.3272   23.7453 N   0  0  0  0  0  0  0  0  0  0  0  0
    2.9353  -11.9440   24.2191 C   0  0  1  0  0  0  0  0  0  0  0  0
    3.7880  -13.0593   24.8630 C   0  0  0  0  0  0  0  0  0  0  0  0
    3.1869  -13.8138   26.0237 C   0  0  0  0  0  0  0  0  0  0  0  0
    3.7569  -14.8790   26.7030 C   0  0  0  0  0  0  0  0  0  0  0  0
    3.0715  -15.3409   27.8108 N   0  0  0  0  0  0  0  0  0  0  0  0
    1.9686  -14.6446   27.9443 C   0  0  0  0  0  0  0  0  0  0  0  0
    1.6630  -13.4685   26.7412 S   0  0  0  0  0  0  0  0  0  0  0  0
    3.6811  -11.2868   23.0169 C   0  0  0  0  0  0  0  0  0  0  0  0
    4.7339  -10.3413   23.3838 N   0  0  0  0  0  0  0  0  0  0  0  0
    4.2503   -9.3513   24.3519 C   0  0  0  0  0  0  0  0  0  0  0  0
    5.1227   -8.1776   24.1564 C   0  0  1  0  0  0  0  0  0  0  0  0
    6.6130   -8.2621   24.0354 C   0  0  0  0  0  0  0  0  0  0  0  0
    5.7271   -8.3057   22.8115 C   0  0  1  0  0  0  0  0  0  0  0  0
    5.2552   -9.6023   22.2190 C   0  0  0  0  0  0  0  0  0  0  0  0
  2  1  1  6
  2  3  1  0
  3  4  1  0
  4  5  2  0
  5  6  1  0
  6  7  2  0
  7  8  1  0
  2  9  1  0
  9 10  1  0
 10 11  1  0
 12 11  1  1
 12 13  1  0
 14 13  1  1
 14 15  1  0
  8  4  1  0
 15 10  1  0
 14 12  1  0
M  END
>  <inchikey>  (34) 
WYFMZCMUDFTPIA-AEJSXWLSSA-N

>  <energy_score>  (34) 
-78.812046

>  <MoCASSIn MergeScore>  (34) 
0.37555

>  <fragmenstein_outcome>  (34) 
acceptable

>  <tags>  (34) 
BulkDock Fragalysis export;Active site iter1 merge poses;Fragmenstein placed

>  <fragmenstein_runtime>  (34) 
2.117117

>  <original ID>  (34) 
WYFMZCMUDFTPIA-AEJSXWLSSA-N

>  <alias>  (34) 
None

>  <ref_mols>  (34) 
x0414a,x0502c

>  <exports>  (34) 
/opt/xchem-fragalysis-2/maxwin/BulkDock/OUTPUTS/CpKRS_iter1_knitwork_pure_split1000_batch009_301900.sdf;/opt/xchem-fragalysis-2/maxwin/BulkDock/OUTPUTS/CpKRS_iter1_knitwork_pure_fragalysis.sdf;/opt/xchem-fragalysis-2/maxwin/CpKRS_FFF/hippo/filtered_merges.sdf

>  <csv_name>  (34) 
CpKRS_iter1_knitwork_pure_split1000_batch009.csv

>  <SLURM_JOB_NAME>  (34) 
BulkDock.place:CpKRS:CpKRS_iter1_knitwork_pure_split1000_batch009

>  <name>  (34) 
WYFMZCMUDFTPIA-AEJSXWLSSA-N

>  <fragmenstein_error>  (34) 
None

>  <score_inspiration>  (34) 
0.531652

>  <HIPPO Compound ID>  (34) 
1189

>  <scratch_subdir>  (34) 
/opt/xchem-fragalysis-2/maxwin/BulkDock/SCRATCH/301900/C1189-P46

>  <distance_score>  (34) 
0.960768

>  <Merging Algorithm>  (34) 
Knitwork Pure

>  <subsites>  (34) 
None

>  <original SMILES>  (34) 
N[C@@H](Cc1cncs1)CN1C[C@H]2C[C@H]2C1

>  <SLURM_JOB_ID>  (34) 
301900

>  <HIPPO Pose ID>  (34) 
9225

>  <fragmenstein_mode>  (34) 
expansion

>  <ref_pdb>  (34) 
filtered_merges_wPDBs_WYFMZCMUDFTPIA-AEJSXWLSSA-N.pdb

$$$$
QCMBMCNEXNYOFQ-JTQLQIEISA-N
     RDKit          3D

 15 16  0  0  0  0  0  0  0  0999 V2000
    6.1515   -7.7523   24.4199 C   0  0  0  0  0  0  0  0  0  0  0  0
    5.4552   -8.5587   23.6127 C   0  0  0  0  0  0  0  0  0  0  0  0
    5.8031   -8.8525   22.1882 C   0  0  0  0  0  0  0  0  0  0  0  0
    4.8900  -10.0169   21.8442 C   0  0  0  0  0  0  0  0  0  0  0  0
    4.5087  -10.6052   23.1371 N   0  0  0  0  0  0  0  0  0  0  0  0
    3.3084  -11.4280   22.9905 C   0  0  0  0  0  0  0  0  0  0  0  0
    2.6920  -12.0325   24.2785 C   0  0  1  0  0  0  0  0  0  0  0  0
    1.3447  -12.5524   23.9217 N   0  0  0  0  0  0  0  0  0  0  0  0
    3.6361  -13.0655   24.9325 C   0  0  0  0  0  0  0  0  0  0  0  0
    3.1040  -13.8437   26.1119 C   0  0  0  0  0  0  0  0  0  0  0  0
    3.7082  -14.9261   26.7312 C   0  0  0  0  0  0  0  0  0  0  0  0
    3.0869  -15.4115   27.8671 N   0  0  0  0  0  0  0  0  0  0  0  0
    1.9909  -14.7228   28.0754 C   0  0  0  0  0  0  0  0  0  0  0  0
    1.6269  -13.5098   26.9264 S   0  0  0  0  0  0  0  0  0  0  0  0
    4.3311   -9.4529   24.0227 C   0  0  0  0  0  0  0  0  0  0  0  0
  1  2  2  0
  2  3  1  0
  3  4  1  0
  4  5  1  0
  5  6  1  0
  6  7  1  0
  7  8  1  6
  7  9  1  0
  9 10  1  0
 10 11  2  0
 11 12  1  0
 12 13  2  0
 13 14  1  0
  5 15  1  0
 15  2  1  0
 14 10  1  0
M  END
>  <inchikey>  (35) 
QCMBMCNEXNYOFQ-JTQLQIEISA-N

>  <energy_score>  (35) 
-65.393985

>  <MoCASSIn MergeScore>  (35) 
0.383317

>  <fragmenstein_outcome>  (35) 
acceptable

>  <tags>  (35) 
BulkDock Fragalysis export;Active site iter1 merge poses;Fragmenstein placed

>  <fragmenstein_runtime>  (35) 
3.419573

>  <original ID>  (35) 
QCMBMCNEXNYOFQ-JTQLQIEISA-N

>  <alias>  (35) 
None

>  <ref_mols>  (35) 
x0414a,x0502c

>  <exports>  (35) 
/opt/xchem-fragalysis-2/maxwin/BulkDock/OUTPUTS/CpKRS_iter1_knitwork_pure_split1000_batch009_301900.sdf;/opt/xchem-fragalysis-2/maxwin/BulkDock/OUTPUTS/CpKRS_iter1_knitwork_pure_fragalysis.sdf;/opt/xchem-fragalysis-2/maxwin/CpKRS_FFF/hippo/filtered_merges.sdf

>  <csv_name>  (35) 
CpKRS_iter1_knitwork_pure_split1000_batch009.csv

>  <SLURM_JOB_NAME>  (35) 
BulkDock.place:CpKRS:CpKRS_iter1_knitwork_pure_split1000_batch009

>  <name>  (35) 
QCMBMCNEXNYOFQ-JTQLQIEISA-N

>  <fragmenstein_error>  (35) 
None

>  <score_inspiration>  (35) 
0.529781

>  <HIPPO Compound ID>  (35) 
1192

>  <scratch_subdir>  (35) 
/opt/xchem-fragalysis-2/maxwin/BulkDock/SCRATCH/301900/C1192-P46

>  <distance_score>  (35) 
0.816265

>  <Merging Algorithm>  (35) 
Knitwork Pure

>  <subsites>  (35) 
None

>  <original SMILES>  (35) 
C=C1CCN(C[C@@H](N)Cc2cncs2)C1

>  <SLURM_JOB_ID>  (35) 
301900

>  <HIPPO Pose ID>  (35) 
9236

>  <fragmenstein_mode>  (35) 
expansion

>  <ref_pdb>  (35) 
filtered_merges_wPDBs_QCMBMCNEXNYOFQ-JTQLQIEISA-N.pdb

$$$$
PCYGYXDHHYJWIB-DTWKUNHWSA-N
     RDKit          3D

 15 16  0  0  0  0  0  0  0  0999 V2000
    2.1960  -11.0699   25.0089 N   0  0  0  0  0  0  0  0  0  0  0  0
    2.8592  -12.1135   24.1861 C   0  0  2  0  0  0  0  0  0  0  0  0
    3.8370  -13.0256   24.9533 C   0  0  0  0  0  0  0  0  0  0  0  0
    3.2625  -13.8630   26.0715 C   0  0  0  0  0  0  0  0  0  0  0  0
    3.9108  -14.8717   26.7660 C   0  0  0  0  0  0  0  0  0  0  0  0
    3.2366  -15.4074   27.8472 N   0  0  0  0  0  0  0  0  0  0  0  0
    2.0652  -14.8263   27.9424 C   0  0  0  0  0  0  0  0  0  0  0  0
    1.6801  -13.6910   26.7227 S   0  0  0  0  0  0  0  0  0  0  0  0
    3.5368  -11.4774   22.9309 C   0  0  0  0  0  0  0  0  0  0  0  0
    4.7199  -10.6295   23.1257 N   0  0  0  0  0  0  0  0  0  0  0  0
    5.1728   -9.9891   21.8809 C   0  0  0  0  0  0  0  0  0  0  0  0
    5.0564   -8.4877   22.0800 C   0  0  0  0  0  0  0  0  0  0  0  0
    5.2600   -8.3500   23.5651 C   0  0  2  0  0  0  0  0  0  0  0  0
    6.5794   -8.4016   23.8567 F   0  0  0  0  0  0  0  0  0  0  0  0
    4.5225   -9.5521   24.1047 C   0  0  0  0  0  0  0  0  0  0  0  0
  2  1  1  1
  2  3  1  0
  3  4  1  0
  4  5  2  0
  5  6  1  0
  6  7  2  0
  7  8  1  0
  2  9  1  0
  9 10  1  0
 10 11  1  0
 11 12  1  0
 12 13  1  0
 13 14  1  6
 13 15  1  0
  8  4  1  0
 15 10  1  0
M  END
>  <inchikey>  (36) 
PCYGYXDHHYJWIB-DTWKUNHWSA-N

>  <energy_score>  (36) 
-71.40314

>  <MoCASSIn MergeScore>  (36) 
0.388134

>  <fragmenstein_outcome>  (36) 
acceptable

>  <tags>  (36) 
BulkDock Fragalysis export;Active site iter1 merge poses;Fragmenstein placed

>  <fragmenstein_runtime>  (36) 
2.061391

>  <original ID>  (36) 
PCYGYXDHHYJWIB-DTWKUNHWSA-N

>  <alias>  (36) 
None

>  <ref_mols>  (36) 
x0414a,x0502c

>  <exports>  (36) 
/opt/xchem-fragalysis-2/maxwin/BulkDock/OUTPUTS/CpKRS_iter1_knitwork_pure_split1000_batch009_301900.sdf;/opt/xchem-fragalysis-2/maxwin/BulkDock/OUTPUTS/CpKRS_iter1_knitwork_pure_fragalysis.sdf;/opt/xchem-fragalysis-2/maxwin/CpKRS_FFF/hippo/filtered_merges.sdf

>  <csv_name>  (36) 
CpKRS_iter1_knitwork_pure_split1000_batch009.csv

>  <SLURM_JOB_NAME>  (36) 
BulkDock.place:CpKRS:CpKRS_iter1_knitwork_pure_split1000_batch009

>  <name>  (36) 
PCYGYXDHHYJWIB-DTWKUNHWSA-N

>  <fragmenstein_error>  (36) 
None

>  <score_inspiration>  (36) 
0.54208

>  <HIPPO Compound ID>  (36) 
1257

>  <scratch_subdir>  (36) 
/opt/xchem-fragalysis-2/maxwin/BulkDock/SCRATCH/301900/C1257-P46

>  <distance_score>  (36) 
0.833326

>  <Merging Algorithm>  (36) 
Knitwork Pure

>  <subsites>  (36) 
None

>  <original SMILES>  (36) 
N[C@H](Cc1cncs1)CN1CC[C@H](F)C1

>  <SLURM_JOB_ID>  (36) 
301900

>  <HIPPO Pose ID>  (36) 
9366

>  <fragmenstein_mode>  (36) 
expansion

>  <ref_pdb>  (36) 
filtered_merges_wPDBs_PCYGYXDHHYJWIB-DTWKUNHWSA-N.pdb

$$$$
NYGAVMKMZIGVKL-UWVGGRQHSA-N
     RDKit          3D

 15 16  0  0  0  0  0  0  0  0999 V2000
    6.2216   -7.9895   24.3491 C   0  0  0  0  0  0  0  0  0  0  0  0
    5.1642   -8.4297   23.3530 C   0  0  1  0  0  0  0  0  0  0  0  0
    5.7748   -9.0498   22.1054 C   0  0  0  0  0  0  0  0  0  0  0  0
    4.9348  -10.2744   21.8506 C   0  0  0  0  0  0  0  0  0  0  0  0
    4.5567  -10.7091   23.1974 N   0  0  0  0  0  0  0  0  0  0  0  0
    3.4264  -11.6429   23.1039 C   0  0  0  0  0  0  0  0  0  0  0  0
    2.8427  -12.1599   24.4427 C   0  0  1  0  0  0  0  0  0  0  0  0
    1.4659  -12.6564   24.1699 N   0  0  0  0  0  0  0  0  0  0  0  0
    3.7756  -13.2041   25.0964 C   0  0  0  0  0  0  0  0  0  0  0  0
    3.2331  -13.9803   26.2741 C   0  0  0  0  0  0  0  0  0  0  0  0
    3.8366  -15.0571   26.9027 C   0  0  0  0  0  0  0  0  0  0  0  0
    3.1940  -15.5581   28.0197 N   0  0  0  0  0  0  0  0  0  0  0  0
    2.0840  -14.8856   28.2078 C   0  0  0  0  0  0  0  0  0  0  0  0
    1.7334  -13.6701   27.0591 S   0  0  0  0  0  0  0  0  0  0  0  0
    4.2134   -9.4826   23.9141 C   0  0  0  0  0  0  0  0  0  0  0  0
  2  1  1  1
  2  3  1  0
  3  4  1  0
  4  5  1  0
  5  6  1  0
  6  7  1  0
  7  8  1  6
  7  9  1  0
  9 10  1  0
 10 11  2  0
 11 12  1  0
 12 13  2  0
 13 14  1  0
  5 15  1  0
 15  2  1  0
 14 10  1  0
M  END
>  <inchikey>  (37) 
NYGAVMKMZIGVKL-UWVGGRQHSA-N

>  <energy_score>  (37) 
-77.857821

>  <MoCASSIn MergeScore>  (37) 
0.367906

>  <fragmenstein_outcome>  (37) 
acceptable

>  <tags>  (37) 
BulkDock Fragalysis export;Active site iter1 merge poses;Fragmenstein placed

>  <fragmenstein_runtime>  (37) 
2.719226

>  <original ID>  (37) 
NYGAVMKMZIGVKL-UWVGGRQHSA-N

>  <alias>  (37) 
None

>  <ref_mols>  (37) 
x0414a,x0502c

>  <exports>  (37) 
/opt/xchem-fragalysis-2/maxwin/BulkDock/OUTPUTS/CpKRS_iter1_knitwork_pure_split1000_batch009_301900.sdf;/opt/xchem-fragalysis-2/maxwin/BulkDock/OUTPUTS/CpKRS_iter1_knitwork_pure_fragalysis.sdf;/opt/xchem-fragalysis-2/maxwin/CpKRS_FFF/hippo/filtered_merges.sdf

>  <csv_name>  (37) 
CpKRS_iter1_knitwork_pure_split1000_batch009.csv

>  <SLURM_JOB_NAME>  (37) 
BulkDock.place:CpKRS:CpKRS_iter1_knitwork_pure_split1000_batch009

>  <name>  (37) 
NYGAVMKMZIGVKL-UWVGGRQHSA-N

>  <fragmenstein_error>  (37) 
None

>  <score_inspiration>  (37) 
0.514102

>  <HIPPO Compound ID>  (37) 
1258

>  <scratch_subdir>  (37) 
/opt/xchem-fragalysis-2/maxwin/BulkDock/SCRATCH/301900/C1258-P46

>  <distance_score>  (37) 
0.948863

>  <Merging Algorithm>  (37) 
Knitwork Pure

>  <subsites>  (37) 
None

>  <original SMILES>  (37) 
C[C@H]1CCN(C[C@@H](N)Cc2cncs2)C1

>  <SLURM_JOB_ID>  (37) 
301900

>  <HIPPO Pose ID>  (37) 
9368

>  <fragmenstein_mode>  (37) 
expansion

>  <ref_pdb>  (37) 
filtered_merges_wPDBs_NYGAVMKMZIGVKL-UWVGGRQHSA-N.pdb

$$$$
OKWKKGILOAMUGL-ZETCQYMHSA-N
     RDKit          3D

 10 10  0  0  0  0  0  0  0  0999 V2000
    4.8988  -11.5595   22.2330 C   0  0  0  0  0  0  0  0  0  0  0  0
    4.0736  -11.9505   23.4588 C   0  0  2  0  0  0  0  0  0  0  0  0
    4.0092  -10.7699   24.3256 N   0  0  0  0  0  0  0  0  0  0  0  0
    4.6881  -13.1848   24.1423 C   0  0  0  0  0  0  0  0  0  0  0  0
    3.9419  -13.8609   25.2616 C   0  0  0  0  0  0  0  0  0  0  0  0
    2.5737  -13.7063   25.4687 C   0  0  0  0  0  0  0  0  0  0  0  0
    1.9668  -14.3874   26.5208 C   0  0  0  0  0  0  0  0  0  0  0  0
    2.7311  -15.2199   27.3246 C   0  0  0  0  0  0  0  0  0  0  0  0
    4.0801  -15.3301   27.0446 C   0  0  0  0  0  0  0  0  0  0  0  0
    4.7035  -14.6728   26.0443 N   0  0  0  0  0  0  0  0  0  0  0  0
  2  1  1  6
  2  3  1  0
  2  4  1  0
  4  5  1  0
  5  6  2  0
  6  7  1  0
  7  8  2  0
  8  9  1  0
  9 10  2  0
 10  5  1  0
M  END
>  <inchikey>  (38) 
OKWKKGILOAMUGL-ZETCQYMHSA-N

>  <energy_score>  (38) 
-7.926724

>  <MoCASSIn MergeScore>  (38) 
0.39813

>  <fragmenstein_outcome>  (38) 
acceptable

>  <tags>  (38) 
BulkDock Fragalysis export;Active site iter1 merge poses;Fragmenstein placed

>  <fragmenstein_runtime>  (38) 
3.859197

>  <original ID>  (38) 
OKWKKGILOAMUGL-ZETCQYMHSA-N

>  <alias>  (38) 
None

>  <ref_mols>  (38) 
x0414a,x0634b

>  <exports>  (38) 
/opt/xchem-fragalysis-2/maxwin/BulkDock/OUTPUTS/CpKRS_iter1_knitwork_pure_split1000_batch103_304143.sdf;/opt/xchem-fragalysis-2/maxwin/BulkDock/OUTPUTS/CpKRS_iter1_knitwork_pure_fragalysis.sdf;/opt/xchem-fragalysis-2/maxwin/CpKRS_FFF/hippo/filtered_merges.sdf

>  <csv_name>  (38) 
CpKRS_iter1_knitwork_pure_split1000_batch103.csv

>  <SLURM_JOB_NAME>  (38) 
BulkDock.place:CpKRS:CpKRS_iter1_knitwork_pure_split1000_batch103

>  <name>  (38) 
OKWKKGILOAMUGL-ZETCQYMHSA-N

>  <fragmenstein_error>  (38) 
None

>  <score_inspiration>  (38) 
0.638507

>  <HIPPO Compound ID>  (38) 
3555

>  <scratch_subdir>  (38) 
/opt/xchem-fragalysis-2/maxwin/BulkDock/SCRATCH/304143/C3555-P51

>  <distance_score>  (38) 
0.943468

>  <Merging Algorithm>  (38) 
Knitwork Pure

>  <subsites>  (38) 
None

>  <original SMILES>  (38) 
C[C@H](N)Cc1ccccn1

>  <SLURM_JOB_ID>  (38) 
304143

>  <HIPPO Pose ID>  (38) 
10518

>  <fragmenstein_mode>  (38) 
expansion

>  <ref_pdb>  (38) 
filtered_merges_wPDBs_OKWKKGILOAMUGL-ZETCQYMHSA-N.pdb

$$$$
SSSYFELTSAMCRT-QMMMGPOBSA-N
     RDKit          3D

 17 18  0  0  0  0  0  0  0  0999 V2000
    5.6960   -7.0081   24.3648 C   0  0  0  0  0  0  0  0  0  0  0  0
    5.0476   -8.2115   23.6942 C   0  0  2  0  0  0  0  0  0  0  0  0
    3.5903   -8.2415   23.9445 N   0  0  0  0  0  0  0  0  0  0  0  0
    5.7741   -9.4322   24.2316 C   0  0  0  0  0  0  0  0  0  0  0  0
    5.2724  -10.7183   23.6705 C   0  0  0  0  0  0  0  0  0  0  0  0
    5.3477  -10.9953   22.3338 C   0  0  0  0  0  0  0  0  0  0  0  0
    4.9114  -12.2407   21.9827 C   0  0  0  0  0  0  0  0  0  0  0  0
    4.4060  -13.1497   22.8289 N   0  0  0  0  0  0  0  0  0  0  0  0
    4.3731  -12.7959   24.1165 C   0  0  0  0  0  0  0  0  0  0  0  0
    3.8490  -13.7252   25.1193 C   0  0  0  0  0  0  0  0  0  0  0  0
    4.7820  -14.4825   25.7795 N   0  0  0  0  0  0  0  0  0  0  0  0
    4.3385  -15.2724   26.7794 C   0  0  0  0  0  0  0  0  0  0  0  0
    3.0154  -15.3564   27.1753 C   0  0  0  0  0  0  0  0  0  0  0  0
    2.0789  -14.5788   26.5049 C   0  0  0  0  0  0  0  0  0  0  0  0
    2.4945  -13.7516   25.4614 C   0  0  0  0  0  0  0  0  0  0  0  0
    1.1832  -12.6851   24.5960 Br  0  0  0  0  0  0  0  0  0  0  0  0
    4.7641  -11.5879   24.5563 N   0  0  0  0  0  0  0  0  0  0  0  0
  2  1  1  1
  2  3  1  0
  2  4  1  0
  4  5  1  0
  5  6  2  0
  6  7  1  0
  7  8  2  0
  8  9  1  0
  9 10  1  0
 10 11  2  0
 11 12  1  0
 12 13  2  0
 13 14  1  0
 14 15  2  0
 15 16  1  0
  9 17  2  0
 17  5  1  0
 15 10  1  0
M  END
>  <inchikey>  (39) 
SSSYFELTSAMCRT-QMMMGPOBSA-N

>  <energy_score>  (39) 
-35.441767

>  <MoCASSIn MergeScore>  (39) 
0.42379

>  <fragmenstein_outcome>  (39) 
acceptable

>  <tags>  (39) 
BulkDock Fragalysis export;Active site iter1 merge poses;Fragmenstein placed

>  <fragmenstein_runtime>  (39) 
5.080982

>  <original ID>  (39) 
SSSYFELTSAMCRT-QMMMGPOBSA-N

>  <alias>  (39) 
None

>  <ref_mols>  (39) 
x0414a,x0634b

>  <exports>  (39) 
/opt/xchem-fragalysis-2/maxwin/BulkDock/OUTPUTS/CpKRS_iter1_knitwork_pure_split1000_batch103_304143.sdf;/opt/xchem-fragalysis-2/maxwin/BulkDock/OUTPUTS/CpKRS_iter1_knitwork_pure_fragalysis.sdf;/opt/xchem-fragalysis-2/maxwin/CpKRS_FFF/hippo/filtered_merges.sdf

>  <csv_name>  (39) 
CpKRS_iter1_knitwork_pure_split1000_batch103.csv

>  <SLURM_JOB_NAME>  (39) 
BulkDock.place:CpKRS:CpKRS_iter1_knitwork_pure_split1000_batch103

>  <name>  (39) 
SSSYFELTSAMCRT-QMMMGPOBSA-N

>  <fragmenstein_error>  (39) 
None

>  <score_inspiration>  (39) 
0.546766

>  <HIPPO Compound ID>  (39) 
3614

>  <scratch_subdir>  (39) 
/opt/xchem-fragalysis-2/maxwin/BulkDock/SCRATCH/304143/C3614-P51

>  <distance_score>  (39) 
0.669612

>  <Merging Algorithm>  (39) 
Knitwork Pure

>  <subsites>  (39) 
None

>  <original SMILES>  (39) 
C[C@H](N)Cc1ccnc(-c2ncccc2Br)n1

>  <SLURM_JOB_ID>  (39) 
304143

>  <HIPPO Pose ID>  (39) 
16102

>  <fragmenstein_mode>  (39) 
expansion

>  <ref_pdb>  (39) 
filtered_merges_wPDBs_SSSYFELTSAMCRT-QMMMGPOBSA-N.pdb

$$$$
UJCSGVLOPZMDJD-QMMMGPOBSA-N
     RDKit          3D

 17 18  0  0  0  0  0  0  0  0999 V2000
    5.7104   -6.9726   24.4455 C   0  0  0  0  0  0  0  0  0  0  0  0
    5.0676   -8.1588   23.7359 C   0  0  2  0  0  0  0  0  0  0  0  0
    3.6225   -8.2362   24.0269 N   0  0  0  0  0  0  0  0  0  0  0  0
    5.8538   -9.3842   24.1742 C   0  0  0  0  0  0  0  0  0  0  0  0
    5.3420  -10.6652   23.6101 C   0  0  0  0  0  0  0  0  0  0  0  0
    5.3596  -10.9190   22.2676 C   0  0  0  0  0  0  0  0  0  0  0  0
    4.9018  -12.1578   21.9152 C   0  0  0  0  0  0  0  0  0  0  0  0
    4.4110  -13.0750   22.7608 N   0  0  0  0  0  0  0  0  0  0  0  0
    4.4546  -12.7521   24.0535 C   0  0  0  0  0  0  0  0  0  0  0  0
    3.9237  -13.6761   25.0581 C   0  0  0  0  0  0  0  0  0  0  0  0
    2.5662  -13.6388   25.3890 C   0  0  0  0  0  0  0  0  0  0  0  0
    2.1120  -14.3728   26.4815 C   0  0  0  0  0  0  0  0  0  0  0  0
    3.0238  -15.1260   27.2062 C   0  0  0  0  0  0  0  0  0  0  0  0
    2.5365  -15.9411   28.6342 Cl  0  0  0  0  0  0  0  0  0  0  0  0
    4.3466  -15.1467   26.7921 C   0  0  0  0  0  0  0  0  0  0  0  0
    4.8248  -14.4394   25.7426 N   0  0  0  0  0  0  0  0  0  0  0  0
    4.8804  -11.5568   24.4995 N   0  0  0  0  0  0  0  0  0  0  0  0
  2  1  1  1
  2  3  1  0
  2  4  1  0
  4  5  1  0
  5  6  2  0
  6  7  1  0
  7  8  2  0
  8  9  1  0
  9 10  1  0
 10 11  2  0
 11 12  1  0
 12 13  2  0
 13 14  1  0
 13 15  1  0
 15 16  2  0
  9 17  2  0
 17  5  1  0
 16 10  1  0
M  END
>  <inchikey>  (40) 
UJCSGVLOPZMDJD-QMMMGPOBSA-N

>  <energy_score>  (40) 
-10.562826

>  <MoCASSIn MergeScore>  (40) 
0.518903

>  <fragmenstein_outcome>  (40) 
acceptable

>  <tags>  (40) 
BulkDock Fragalysis export;Active site iter1 merge poses;Fragmenstein placed

>  <fragmenstein_runtime>  (40) 
4.916618

>  <original ID>  (40) 
UJCSGVLOPZMDJD-QMMMGPOBSA-N

>  <alias>  (40) 
None

>  <ref_mols>  (40) 
x0414a,x0634b

>  <exports>  (40) 
/opt/xchem-fragalysis-2/maxwin/BulkDock/OUTPUTS/CpKRS_iter1_knitwork_pure_split1000_batch103_304143.sdf;/opt/xchem-fragalysis-2/maxwin/BulkDock/OUTPUTS/CpKRS_iter1_knitwork_pure_fragalysis.sdf;/opt/xchem-fragalysis-2/maxwin/CpKRS_FFF/hippo/filtered_merges.sdf

>  <csv_name>  (40) 
CpKRS_iter1_knitwork_pure_split1000_batch103.csv

>  <SLURM_JOB_NAME>  (40) 
BulkDock.place:CpKRS:CpKRS_iter1_knitwork_pure_split1000_batch103

>  <name>  (40) 
UJCSGVLOPZMDJD-QMMMGPOBSA-N

>  <fragmenstein_error>  (40) 
None

>  <score_inspiration>  (40) 
0.640891

>  <HIPPO Compound ID>  (40) 
3616

>  <scratch_subdir>  (40) 
/opt/xchem-fragalysis-2/maxwin/BulkDock/SCRATCH/304143/C3616-P51

>  <distance_score>  (40) 
0.658834

>  <Merging Algorithm>  (40) 
Knitwork Pure

>  <subsites>  (40) 
None

>  <original SMILES>  (40) 
C[C@H](N)Cc1ccnc(-c2ccc(Cl)cn2)n1

>  <SLURM_JOB_ID>  (40) 
304143

>  <HIPPO Pose ID>  (40) 
16284

>  <fragmenstein_mode>  (40) 
expansion

>  <ref_pdb>  (40) 
filtered_merges_wPDBs_UJCSGVLOPZMDJD-QMMMGPOBSA-N.pdb

$$$$
KHZCRBCBTIIALF-MRVPVSSYSA-N
     RDKit          3D

 17 18  0  0  0  0  0  0  0  0999 V2000
    5.5185   -7.2126   24.3876 C   0  0  0  0  0  0  0  0  0  0  0  0
    4.7145   -8.5070   24.3096 C   0  0  1  0  0  0  0  0  0  0  0  0
    3.2637   -8.2350   24.3040 N   0  0  0  0  0  0  0  0  0  0  0  0
    5.0721   -9.2300   23.0214 C   0  0  0  0  0  0  0  0  0  0  0  0
    4.8218  -10.7141   23.0269 C   0  0  0  0  0  0  0  0  0  0  0  0
    5.3193  -11.3935   21.9468 C   0  0  0  0  0  0  0  0  0  0  0  0
    5.3674  -12.7469   22.0718 C   0  0  0  0  0  0  0  0  0  0  0  0
    4.8685  -13.4166   23.1023 N   0  0  0  0  0  0  0  0  0  0  0  0
    4.3148  -12.6966   24.0765 C   0  0  0  0  0  0  0  0  0  0  0  0
    3.7543  -13.4624   25.1909 C   0  0  0  0  0  0  0  0  0  0  0  0
    2.4361  -13.2644   25.6010 C   0  0  0  0  0  0  0  0  0  0  0  0
    1.9479  -13.9994   26.6749 C   0  0  0  0  0  0  0  0  0  0  0  0
    2.7937  -14.9018   27.3046 C   0  0  0  0  0  0  0  0  0  0  0  0
    2.2433  -15.7809   28.8659 Br  0  0  0  0  0  0  0  0  0  0  0  0
    4.0783  -15.0741   26.8208 C   0  0  0  0  0  0  0  0  0  0  0  0
    4.5808  -14.3752   25.7853 N   0  0  0  0  0  0  0  0  0  0  0  0
    4.2630  -11.3407   24.0854 N   0  0  0  0  0  0  0  0  0  0  0  0
  2  1  1  6
  2  3  1  0
  2  4  1  0
  4  5  1  0
  5  6  2  0
  6  7  1  0
  7  8  2  0
  8  9  1  0
  9 10  1  0
 10 11  2  0
 11 12  1  0
 12 13  2  0
 13 14  1  0
 13 15  1  0
 15 16  2  0
  9 17  2  0
 17  5  1  0
 16 10  1  0
M  END
>  <inchikey>  (41) 
KHZCRBCBTIIALF-MRVPVSSYSA-N

>  <energy_score>  (41) 
-13.659148

>  <MoCASSIn MergeScore>  (41) 
0.477864

>  <fragmenstein_outcome>  (41) 
acceptable

>  <tags>  (41) 
BulkDock Fragalysis export;Active site iter1 merge poses;Fragmenstein placed

>  <fragmenstein_runtime>  (41) 
4.909985

>  <original ID>  (41) 
KHZCRBCBTIIALF-MRVPVSSYSA-N

>  <alias>  (41) 
None

>  <ref_mols>  (41) 
x0414a,x0634b

>  <exports>  (41) 
/opt/xchem-fragalysis-2/maxwin/BulkDock/OUTPUTS/CpKRS_iter1_knitwork_pure_split1000_batch103_304143.sdf;/opt/xchem-fragalysis-2/maxwin/BulkDock/OUTPUTS/CpKRS_iter1_knitwork_pure_fragalysis.sdf;/opt/xchem-fragalysis-2/maxwin/CpKRS_FFF/hippo/filtered_merges.sdf

>  <csv_name>  (41) 
CpKRS_iter1_knitwork_pure_split1000_batch103.csv

>  <SLURM_JOB_NAME>  (41) 
BulkDock.place:CpKRS:CpKRS_iter1_knitwork_pure_split1000_batch103

>  <name>  (41) 
KHZCRBCBTIIALF-MRVPVSSYSA-N

>  <fragmenstein_error>  (41) 
None

>  <score_inspiration>  (41) 
0.600645

>  <HIPPO Compound ID>  (41) 
3618

>  <scratch_subdir>  (41) 
/opt/xchem-fragalysis-2/maxwin/BulkDock/SCRATCH/304143/C3618-P51

>  <distance_score>  (41) 
0.817955

>  <Merging Algorithm>  (41) 
Knitwork Pure

>  <subsites>  (41) 
None

>  <original SMILES>  (41) 
C[C@@H](N)Cc1ccnc(-c2ccc(Br)cn2)n1

>  <SLURM_JOB_ID>  (41) 
304143

>  <HIPPO Pose ID>  (41) 
16508

>  <fragmenstein_mode>  (41) 
expansion

>  <ref_pdb>  (41) 
filtered_merges_wPDBs_KHZCRBCBTIIALF-MRVPVSSYSA-N.pdb

$$$$
RIRTWUYARZZKGA-SECBINFHSA-N
     RDKit          3D

 17 18  0  0  0  0  0  0  0  0999 V2000
    4.6245  -15.9244   27.3594 C   0  0  0  0  0  0  0  0  0  0  0  0
    3.8085  -14.9031   26.6556 C   0  0  0  0  0  0  0  0  0  0  0  0
    2.4520  -14.7948   26.9440 C   0  0  0  0  0  0  0  0  0  0  0  0
    1.6952  -13.8775   26.2348 C   0  0  0  0  0  0  0  0  0  0  0  0
    2.3168  -13.1109   25.2579 C   0  0  0  0  0  0  0  0  0  0  0  0
    3.6832  -13.2793   25.0240 C   0  0  0  0  0  0  0  0  0  0  0  0
    4.3584  -12.4670   24.0137 C   0  0  0  0  0  0  0  0  0  0  0  0
    4.3894  -12.9387   22.7644 N   0  0  0  0  0  0  0  0  0  0  0  0
    4.9207  -12.1285   21.8470 C   0  0  0  0  0  0  0  0  0  0  0  0
    5.3681  -10.8635   22.0814 C   0  0  0  0  0  0  0  0  0  0  0  0
    5.3114  -10.4617   23.3875 C   0  0  0  0  0  0  0  0  0  0  0  0
    5.8982   -9.1352   23.7526 C   0  0  0  0  0  0  0  0  0  0  0  0
    5.0224   -8.2983   24.6757 C   0  0  1  0  0  0  0  0  0  0  0  0
    5.6351   -6.9067   24.7423 C   0  0  0  0  0  0  0  0  0  0  0  0
    3.6117   -8.2134   24.2388 N   0  0  0  0  0  0  0  0  0  0  0  0
    4.8050  -11.2406   24.3639 N   0  0  0  0  0  0  0  0  0  0  0  0
    4.4408  -14.1708   25.7127 N   0  0  0  0  0  0  0  0  0  0  0  0
  1  2  1  0
  2  3  2  0
  3  4  1  0
  4  5  2  0
  5  6  1  0
  6  7  1  0
  7  8  2  0
  8  9  1  0
  9 10  2  0
 10 11  1  0
 11 12  1  0
 12 13  1  0
 13 14  1  6
 13 15  1  0
 11 16  2  0
  6 17  2  0
 17  2  1  0
 16  7  1  0
M  END
>  <inchikey>  (42) 
RIRTWUYARZZKGA-SECBINFHSA-N

>  <energy_score>  (42) 
-14.581079

>  <MoCASSIn MergeScore>  (42) 
0.3892

>  <fragmenstein_outcome>  (42) 
acceptable

>  <tags>  (42) 
BulkDock Fragalysis export;Active site iter1 merge poses;Fragmenstein placed

>  <fragmenstein_runtime>  (42) 
6.017352

>  <original ID>  (42) 
RIRTWUYARZZKGA-SECBINFHSA-N

>  <alias>  (42) 
None

>  <ref_mols>  (42) 
x0414a,x0634b

>  <exports>  (42) 
/opt/xchem-fragalysis-2/maxwin/BulkDock/OUTPUTS/CpKRS_iter1_knitwork_pure_split1000_batch103_304143.sdf;/opt/xchem-fragalysis-2/maxwin/BulkDock/OUTPUTS/CpKRS_iter1_knitwork_pure_fragalysis.sdf;/opt/xchem-fragalysis-2/maxwin/CpKRS_FFF/hippo/filtered_merges.sdf

>  <csv_name>  (42) 
CpKRS_iter1_knitwork_pure_split1000_batch103.csv

>  <SLURM_JOB_NAME>  (42) 
BulkDock.place:CpKRS:CpKRS_iter1_knitwork_pure_split1000_batch103

>  <name>  (42) 
RIRTWUYARZZKGA-SECBINFHSA-N

>  <fragmenstein_error>  (42) 
None

>  <score_inspiration>  (42) 
0.52052

>  <HIPPO Compound ID>  (42) 
3623

>  <scratch_subdir>  (42) 
/opt/xchem-fragalysis-2/maxwin/BulkDock/SCRATCH/304143/C3623-P51

>  <distance_score>  (42) 
0.897972

>  <Merging Algorithm>  (42) 
Knitwork Pure

>  <subsites>  (42) 
None

>  <original SMILES>  (42) 
Cc1cccc(-c2nccc(C[C@@H](C)N)n2)n1

>  <SLURM_JOB_ID>  (42) 
304143

>  <HIPPO Pose ID>  (42) 
16976

>  <fragmenstein_mode>  (42) 
expansion

>  <ref_pdb>  (42) 
filtered_merges_wPDBs_RIRTWUYARZZKGA-SECBINFHSA-N.pdb

$$$$
CSRIBLIVOSAPEL-YFKPBYRVSA-N
     RDKit          3D

 11 11  0  0  0  0  0  0  0  0999 V2000
    5.0190  -10.2761   23.8784 C   0  0  0  0  0  0  0  0  0  0  0  0
    4.3208  -11.1476   24.9204 C   0  0  2  0  0  0  0  0  0  0  0  0
    5.0973  -11.0842   26.1717 N   0  0  0  0  0  0  0  0  0  0  0  0
    4.1656  -12.5843   24.3858 C   0  0  0  0  0  0  0  0  0  0  0  0
    3.1935  -13.4200   25.1485 C   0  0  0  0  0  0  0  0  0  0  0  0
    1.9260  -13.0043   25.2979 N   0  0  0  0  0  0  0  0  0  0  0  0
    1.3330  -14.0066   25.9618 N   0  0  0  0  0  0  0  0  0  0  0  0
   -0.0562  -13.8804   26.3181 C   0  0  0  0  0  0  0  0  0  0  0  0
    2.1489  -15.0679   26.1933 C   0  0  0  0  0  0  0  0  0  0  0  0
    3.3825  -14.7029   25.7130 C   0  0  0  0  0  0  0  0  0  0  0  0
    4.8104  -15.6133   25.7335 Cl  0  0  0  0  0  0  0  0  0  0  0  0
  2  1  1  6
  2  3  1  0
  2  4  1  0
  4  5  1  0
  5  6  2  0
  6  7  1  0
  7  8  1  0
  7  9  1  0
  9 10  2  0
 10 11  1  0
 10  5  1  0
M  END
>  <inchikey>  (43) 
CSRIBLIVOSAPEL-YFKPBYRVSA-N

>  <energy_score>  (43) 
-27.142054

>  <MoCASSIn MergeScore>  (43) 
0.541323

>  <fragmenstein_outcome>  (43) 
acceptable

>  <tags>  (43) 
BulkDock Fragalysis export;Active site iter1 merge poses;Fragmenstein placed

>  <fragmenstein_runtime>  (43) 
3.663446

>  <original ID>  (43) 
CSRIBLIVOSAPEL-YFKPBYRVSA-N

>  <alias>  (43) 
None

>  <ref_mols>  (43) 
x0414a,x0421b

>  <exports>  (43) 
/opt/xchem-fragalysis-2/maxwin/BulkDock/OUTPUTS/CpKRS_iter1_knitwork_pure_split1000_batch013_304053.sdf;/opt/xchem-fragalysis-2/maxwin/BulkDock/OUTPUTS/CpKRS_iter1_knitwork_pure_fragalysis.sdf;/opt/xchem-fragalysis-2/maxwin/CpKRS_FFF/hippo/filtered_merges.sdf

>  <csv_name>  (43) 
CpKRS_iter1_knitwork_pure_split1000_batch013.csv

>  <SLURM_JOB_NAME>  (43) 
BulkDock.place:CpKRS:CpKRS_iter1_knitwork_pure_split1000_batch013

>  <name>  (43) 
CSRIBLIVOSAPEL-YFKPBYRVSA-N

>  <fragmenstein_error>  (43) 
None

>  <score_inspiration>  (43) 
0.751041

>  <HIPPO Compound ID>  (43) 
7515

>  <scratch_subdir>  (43) 
/opt/xchem-fragalysis-2/maxwin/BulkDock/SCRATCH/304053/C7515-P6

>  <distance_score>  (43) 
0.863223

>  <Merging Algorithm>  (43) 
Knitwork Pure

>  <subsites>  (43) 
None

>  <original SMILES>  (43) 
C[C@H](N)Cc1nn(C)cc1Cl

>  <SLURM_JOB_ID>  (43) 
304053

>  <HIPPO Pose ID>  (43) 
21783

>  <fragmenstein_mode>  (43) 
expansion

>  <ref_pdb>  (43) 
filtered_merges_wPDBs_CSRIBLIVOSAPEL-YFKPBYRVSA-N.pdb

$$$$
MWMQDDIZSCKXTH-DTWKUNHWSA-N
     RDKit          3D

 14 14  0  0  0  0  0  0  0  0999 V2000
    5.8236   -7.6635   23.6173 C   0  0  0  0  0  0  0  0  0  0  0  0
    5.0021   -8.9102   23.9266 C   0  0  2  0  0  0  0  0  0  0  0  0
    3.5713   -8.5376   24.0060 N   0  0  0  0  0  0  0  0  0  0  0  0
    5.5618   -9.5866   25.2115 C   0  0  0  0  0  0  0  0  0  0  0  0
    4.8461  -10.7346   25.7724 N   0  0  0  0  0  0  0  0  0  0  0  0
    3.7570  -10.3816   26.6713 C   0  0  0  0  0  0  0  0  0  0  0  0
    3.2773  -11.5835   27.4807 C   0  0  0  0  0  0  0  0  0  0  0  0
    3.5088  -12.9275   26.7949 C   0  0  0  0  0  0  0  0  0  0  0  0
    3.4988  -12.8288   25.2724 C   0  0  1  0  0  0  0  0  0  0  0  0
    2.0865  -12.5766   24.7293 C   0  0  0  0  0  0  0  0  0  0  0  0
    1.9993  -12.4721   23.2228 C   0  0  0  0  0  0  0  0  0  0  0  0
    1.2833  -13.6072   25.1201 F   0  0  0  0  0  0  0  0  0  0  0  0
    1.5307  -11.4567   25.2490 F   0  0  0  0  0  0  0  0  0  0  0  0
    4.5623  -11.8113   24.8273 C   0  0  0  0  0  0  0  0  0  0  0  0
  2  1  1  1
  2  3  1  0
  2  4  1  0
  4  5  1  0
  5  6  1  0
  6  7  1  0
  7  8  1  0
  8  9  1  0
  9 10  1  1
 10 11  1  0
 10 12  1  0
 10 13  1  0
  9 14  1  0
 14  5  1  0
M  END
>  <inchikey>  (44) 
MWMQDDIZSCKXTH-DTWKUNHWSA-N

>  <energy_score>  (44) 
-28.44543

>  <MoCASSIn MergeScore>  (44) 
0.595926

>  <fragmenstein_outcome>  (44) 
acceptable

>  <tags>  (44) 
BulkDock Fragalysis export;Active site iter1 merge poses;Fragmenstein placed

>  <fragmenstein_runtime>  (44) 
4.803604

>  <original ID>  (44) 
MWMQDDIZSCKXTH-DTWKUNHWSA-N

>  <alias>  (44) 
None

>  <ref_mols>  (44) 
x0414a,x0489a

>  <exports>  (44) 
/opt/xchem-fragalysis-2/maxwin/BulkDock/OUTPUTS/CpKRS_iter1_knitwork_pure_split1000_batch048_304088.sdf;/opt/xchem-fragalysis-2/maxwin/BulkDock/OUTPUTS/CpKRS_iter1_knitwork_pure_fragalysis.sdf;/opt/xchem-fragalysis-2/maxwin/CpKRS_FFF/hippo/filtered_merges.sdf

>  <csv_name>  (44) 
CpKRS_iter1_knitwork_pure_split1000_batch048.csv

>  <SLURM_JOB_NAME>  (44) 
BulkDock.place:CpKRS:CpKRS_iter1_knitwork_pure_split1000_batch048

>  <name>  (44) 
MWMQDDIZSCKXTH-DTWKUNHWSA-N

>  <fragmenstein_error>  (44) 
None

>  <score_inspiration>  (44) 
0.769437

>  <HIPPO Compound ID>  (44) 
21295

>  <scratch_subdir>  (44) 
/opt/xchem-fragalysis-2/maxwin/BulkDock/SCRATCH/304088/C21295-P6

>  <distance_score>  (44) 
0.739905

>  <Merging Algorithm>  (44) 
Knitwork Pure

>  <subsites>  (44) 
None

>  <original SMILES>  (44) 
C[C@H](N)CN1CCC[C@@H](C(C)(F)F)C1

>  <SLURM_JOB_ID>  (44) 
304088

>  <HIPPO Pose ID>  (44) 
22636

>  <fragmenstein_mode>  (44) 
expansion

>  <ref_pdb>  (44) 
filtered_merges_wPDBs_MWMQDDIZSCKXTH-DTWKUNHWSA-N.pdb

$$$$
QSVSAOBUDCRTOK-OPRDCNLKSA-N
     RDKit          3D

 12 12  0  0  0  0  0  0  0  0999 V2000
    5.6752   -8.2244   24.2522 C   0  0  0  0  0  0  0  0  0  0  0  0
    5.3911   -9.7164   24.4176 C   0  0  1  0  0  0  0  0  0  0  0  0
    5.8342  -10.1262   25.7543 N   0  0  0  0  0  0  0  0  0  0  0  0
    3.8955  -10.0276   24.2487 C   0  0  0  0  0  0  0  0  0  0  0  0
    3.5590  -11.3160   23.4556 C   0  0  1  0  0  0  0  0  0  0  0  0
    4.5131  -12.5033   23.6716 C   0  0  0  0  0  0  0  0  0  0  0  0
    3.7813  -13.8414   23.6806 C   0  0  0  0  0  0  0  0  0  0  0  0
    2.7601  -13.9212   24.7336 N   0  0  0  0  0  0  0  0  0  0  0  0
    3.3300  -14.3936   25.9971 C   0  0  0  0  0  0  0  0  0  0  0  0
    2.0016  -12.6675   24.9327 C   0  0  2  0  0  0  0  0  0  0  0  0
    0.5352  -13.0112   25.2078 C   0  0  0  0  0  0  0  0  0  0  0  0
    2.0985  -11.7283   23.7180 C   0  0  0  0  0  0  0  0  0  0  0  0
  2  1  1  1
  2  3  1  0
  2  4  1  0
  5  4  1  1
  5  6  1  0
  6  7  1  0
  7  8  1  0
  8  9  1  0
  8 10  1  0
 10 11  1  6
 10 12  1  0
 12  5  1  0
M  END
>  <inchikey>  (45) 
QSVSAOBUDCRTOK-OPRDCNLKSA-N

>  <energy_score>  (45) 
-28.951762

>  <MoCASSIn MergeScore>  (45) 
0.356352

>  <fragmenstein_outcome>  (45) 
acceptable

>  <tags>  (45) 
BulkDock Fragalysis export;Active site iter1 merge poses;Fragmenstein placed

>  <fragmenstein_runtime>  (45) 
7.513934

>  <original ID>  (45) 
QSVSAOBUDCRTOK-OPRDCNLKSA-N

>  <alias>  (45) 
None

>  <ref_mols>  (45) 
x0414a,x0489a

>  <exports>  (45) 
/opt/xchem-fragalysis-2/maxwin/BulkDock/OUTPUTS/CpKRS_iter1_knitwork_pure_split1000_batch048_304088.sdf;/opt/xchem-fragalysis-2/maxwin/BulkDock/OUTPUTS/CpKRS_iter1_knitwork_pure_fragalysis.sdf;/opt/xchem-fragalysis-2/maxwin/CpKRS_FFF/hippo/filtered_merges.sdf

>  <csv_name>  (45) 
CpKRS_iter1_knitwork_pure_split1000_batch048.csv

>  <SLURM_JOB_NAME>  (45) 
BulkDock.place:CpKRS:CpKRS_iter1_knitwork_pure_split1000_batch048

>  <name>  (45) 
QSVSAOBUDCRTOK-OPRDCNLKSA-N

>  <fragmenstein_error>  (45) 
None

>  <score_inspiration>  (45) 
0.545455

>  <HIPPO Compound ID>  (45) 
21319

>  <scratch_subdir>  (45) 
/opt/xchem-fragalysis-2/maxwin/BulkDock/SCRATCH/304088/C21319-P6

>  <distance_score>  (45) 
0.977686

>  <Merging Algorithm>  (45) 
Knitwork Pure

>  <subsites>  (45) 
None

>  <original SMILES>  (45) 
C[C@@H]1C[C@@H](C[C@@H](C)N)CCN1C

>  <SLURM_JOB_ID>  (45) 
304088

>  <HIPPO Pose ID>  (45) 
24964

>  <fragmenstein_mode>  (45) 
expansion

>  <ref_pdb>  (45) 
filtered_merges_wPDBs_QSVSAOBUDCRTOK-OPRDCNLKSA-N.pdb

$$$$
XTPKSUYNNIDTGE-GMTAPVOTSA-N
     RDKit          3D

 13 13  0  0  0  0  0  0  0  0999 V2000
    1.9624  -12.4054   23.2553 C   0  0  0  0  0  0  0  0  0  0  0  0
    2.0305  -12.3758   24.7697 C   0  0  0  0  0  0  0  0  0  0  0  0
    3.3617  -12.9011   25.3434 C   0  0  2  0  0  0  0  0  0  0  0  0
    3.3550  -12.7835   26.8689 C   0  0  0  0  0  0  0  0  0  0  0  0
    3.4744  -11.3316   27.3309 C   0  0  0  0  0  0  0  0  0  0  0  0
    4.6444  -10.5884   26.6616 C   0  0  1  0  0  0  0  0  0  0  0  0
    5.9832  -11.0143   27.2790 C   0  0  0  0  0  0  0  0  0  0  0  0
    4.5929  -10.7801   25.2024 N   0  0  0  0  0  0  0  0  0  0  0  0
    5.5418   -9.9554   24.4554 C   0  0  0  0  0  0  0  0  0  0  0  0
    4.9446   -8.5544   24.2014 C   0  0  1  0  0  0  0  0  0  0  0  0
    5.8492   -7.7852   23.2564 C   0  0  0  0  0  0  0  0  0  0  0  0
    3.5654   -8.6584   23.6439 N   0  0  0  0  0  0  0  0  0  0  0  0
    4.6029  -12.1828   24.7951 C   0  0  0  0  0  0  0  0  0  0  0  0
  1  2  1  0
  3  2  1  6
  3  4  1  0
  4  5  1  0
  5  6  1  0
  6  7  1  1
  6  8  1  0
  8  9  1  0
  9 10  1  0
 10 11  1  6
 10 12  1  0
  8 13  1  0
 13  3  1  0
M  END
>  <inchikey>  (46) 
XTPKSUYNNIDTGE-GMTAPVOTSA-N

>  <energy_score>  (46) 
-39.667237

>  <MoCASSIn MergeScore>  (46) 
0.438863

>  <fragmenstein_outcome>  (46) 
acceptable

>  <tags>  (46) 
BulkDock Fragalysis export;Active site iter1 merge poses;Fragmenstein placed

>  <fragmenstein_runtime>  (46) 
4.907921

>  <original ID>  (46) 
XTPKSUYNNIDTGE-GMTAPVOTSA-N

>  <alias>  (46) 
None

>  <ref_mols>  (46) 
x0414a,x0489a

>  <exports>  (46) 
/opt/xchem-fragalysis-2/maxwin/BulkDock/OUTPUTS/CpKRS_iter1_knitwork_pure_split1000_batch048_304088.sdf;/opt/xchem-fragalysis-2/maxwin/BulkDock/OUTPUTS/CpKRS_iter1_knitwork_pure_fragalysis.sdf;/opt/xchem-fragalysis-2/maxwin/CpKRS_FFF/hippo/filtered_merges.sdf

>  <csv_name>  (46) 
CpKRS_iter1_knitwork_pure_split1000_batch048.csv

>  <SLURM_JOB_NAME>  (46) 
BulkDock.place:CpKRS:CpKRS_iter1_knitwork_pure_split1000_batch048

>  <name>  (46) 
XTPKSUYNNIDTGE-GMTAPVOTSA-N

>  <fragmenstein_error>  (46) 
None

>  <score_inspiration>  (46) 
0.614312

>  <HIPPO Compound ID>  (46) 
21328

>  <scratch_subdir>  (46) 
/opt/xchem-fragalysis-2/maxwin/BulkDock/SCRATCH/304088/C21328-P6

>  <distance_score>  (46) 
0.983424

>  <Merging Algorithm>  (46) 
Knitwork Pure

>  <subsites>  (46) 
None

>  <original SMILES>  (46) 
CC[C@@H]1CC[C@@H](C)N(C[C@@H](C)N)C1

>  <SLURM_JOB_ID>  (46) 
304088

>  <HIPPO Pose ID>  (46) 
25776

>  <fragmenstein_mode>  (46) 
expansion

>  <ref_pdb>  (46) 
filtered_merges_wPDBs_XTPKSUYNNIDTGE-GMTAPVOTSA-N.pdb

$$$$
VTMWMMWZOSCZEO-RKDXNWHRSA-N
     RDKit          3D

 14 15  0  0  0  0  0  0  0  0999 V2000
    5.8301   -7.9027   23.1612 C   0  0  0  0  0  0  0  0  0  0  0  0
    4.9871   -8.5852   24.2314 C   0  0  1  0  0  0  0  0  0  0  0  0
    3.6295   -8.8350   23.6964 N   0  0  0  0  0  0  0  0  0  0  0  0
    5.7402   -9.8561   24.7027 C   0  0  0  0  0  0  0  0  0  0  0  0
    5.1459  -10.7200   25.7013 N   0  0  0  0  0  0  0  0  0  0  0  0
    4.5059  -10.1043   26.8552 C   0  0  0  0  0  0  0  0  0  0  0  0
    3.5641  -11.1783   27.3921 C   0  0  0  0  0  0  0  0  0  0  0  0
    3.8899  -12.4151   26.5633 C   0  0  1  0  0  0  0  0  0  0  0  0
    2.8359  -13.4581   26.4284 C   0  0  0  0  0  0  0  0  0  0  0  0
    3.1240  -14.7000   26.0934 N   0  0  0  0  0  0  0  0  0  0  0  0
    1.9942  -15.4834   26.1740 C   0  0  0  0  0  0  0  0  0  0  0  0
    0.8315  -14.8136   26.4780 C   0  0  0  0  0  0  0  0  0  0  0  0
    1.1595  -13.1503   26.6717 S   0  0  0  0  0  0  0  0  0  0  0  0
    4.3111  -11.8164   25.2321 C   0  0  0  0  0  0  0  0  0  0  0  0
  2  1  1  6
  2  3  1  0
  2  4  1  0
  4  5  1  0
  5  6  1  0
  6  7  1  0
  7  8  1  0
  8  9  1  6
  9 10  2  0
 10 11  1  0
 11 12  2  0
 12 13  1  0
  8 14  1  0
 14  5  1  0
 13  9  1  0
M  END
>  <inchikey>  (47) 
VTMWMMWZOSCZEO-RKDXNWHRSA-N

>  <energy_score>  (47) 
-81.733418

>  <MoCASSIn MergeScore>  (47) 
0.542889

>  <fragmenstein_outcome>  (47) 
acceptable

>  <tags>  (47) 
BulkDock Fragalysis export;Active site iter1 merge poses;Fragmenstein placed

>  <fragmenstein_runtime>  (47) 
4.02323

>  <original ID>  (47) 
VTMWMMWZOSCZEO-RKDXNWHRSA-N

>  <alias>  (47) 
None

>  <ref_mols>  (47) 
x0414a,x0502c

>  <exports>  (47) 
/opt/xchem-fragalysis-2/maxwin/BulkDock/OUTPUTS/CpKRS_iter1_knitwork_pure_split1000_batch067_304107.sdf;/opt/xchem-fragalysis-2/maxwin/BulkDock/OUTPUTS/CpKRS_iter1_knitwork_pure_fragalysis.sdf;/opt/xchem-fragalysis-2/maxwin/CpKRS_FFF/hippo/filtered_merges.sdf

>  <csv_name>  (47) 
CpKRS_iter1_knitwork_pure_split1000_batch067.csv

>  <SLURM_JOB_NAME>  (47) 
BulkDock.place:CpKRS:CpKRS_iter1_knitwork_pure_split1000_batch067

>  <name>  (47) 
VTMWMMWZOSCZEO-RKDXNWHRSA-N

>  <fragmenstein_error>  (47) 
None

>  <score_inspiration>  (47) 
0.706923

>  <HIPPO Compound ID>  (47) 
17742

>  <scratch_subdir>  (47) 
/opt/xchem-fragalysis-2/maxwin/BulkDock/SCRATCH/304107/C17742-P6

>  <distance_score>  (47) 
0.985749

>  <Merging Algorithm>  (47) 
Knitwork Pure

>  <subsites>  (47) 
None

>  <original SMILES>  (47) 
C[C@@H](N)CN1CC[C@@H](c2nccs2)C1

>  <SLURM_JOB_ID>  (47) 
304107

>  <HIPPO Pose ID>  (47) 
27224

>  <fragmenstein_mode>  (47) 
expansion

>  <ref_pdb>  (47) 
filtered_merges_wPDBs_VTMWMMWZOSCZEO-RKDXNWHRSA-N.pdb

$$$$
VTMWMMWZOSCZEO-RKDXNWHRSA-N
     RDKit          3D

 14 15  0  0  0  0  0  0  0  0999 V2000
    5.9203   -8.0106   23.1686 C   0  0  0  0  0  0  0  0  0  0  0  0
    4.9725   -8.7813   24.0826 C   0  0  1  0  0  0  0  0  0  0  0  0
    3.8682   -9.3151   23.2848 N   0  0  0  0  0  0  0  0  0  0  0  0
    5.7676   -9.8972   24.7984 C   0  0  0  0  0  0  0  0  0  0  0  0
    5.1305  -10.7347   25.8002 N   0  0  0  0  0  0  0  0  0  0  0  0
    4.2039  -10.0815   26.7137 C   0  0  0  0  0  0  0  0  0  0  0  0
    3.5361  -11.2500   27.4311 C   0  0  0  0  0  0  0  0  0  0  0  0
    3.9012  -12.4834   26.5995 C   0  0  1  0  0  0  0  0  0  0  0  0
    2.8586  -13.5326   26.4015 C   0  0  0  0  0  0  0  0  0  0  0  0
    3.1677  -14.7715   26.0689 N   0  0  0  0  0  0  0  0  0  0  0  0
    2.0420  -15.5651   26.0991 C   0  0  0  0  0  0  0  0  0  0  0  0
    0.8628  -14.9062   26.3590 C   0  0  0  0  0  0  0  0  0  0  0  0
    1.1689  -13.2398   26.5683 S   0  0  0  0  0  0  0  0  0  0  0  0
    4.4259  -11.9092   25.2923 C   0  0  0  0  0  0  0  0  0  0  0  0
  2  1  1  6
  2  3  1  0
  2  4  1  0
  4  5  1  0
  5  6  1  0
  6  7  1  0
  7  8  1  0
  8  9  1  6
  9 10  2  0
 10 11  1  0
 11 12  2  0
 12 13  1  0
  8 14  1  0
 14  5  1  0
 13  9  1  0
M  END
>  <inchikey>  (48) 
VTMWMMWZOSCZEO-RKDXNWHRSA-N

>  <energy_score>  (48) 
-80.912072

>  <MoCASSIn MergeScore>  (48) 
0.537995

>  <fragmenstein_outcome>  (48) 
acceptable

>  <tags>  (48) 
BulkDock Fragalysis export;Active site iter1 merge poses;Fragmenstein placed

>  <fragmenstein_runtime>  (48) 
4.11458

>  <original ID>  (48) 
VTMWMMWZOSCZEO-RKDXNWHRSA-N

>  <alias>  (48) 
None

>  <ref_mols>  (48) 
x0414a,x0504b

>  <exports>  (48) 
/opt/xchem-fragalysis-2/maxwin/BulkDock/OUTPUTS/CpKRS_iter1_knitwork_pure_split1000_batch070_304110.sdf;/opt/xchem-fragalysis-2/maxwin/BulkDock/OUTPUTS/CpKRS_iter1_knitwork_pure_fragalysis.sdf;/opt/xchem-fragalysis-2/maxwin/CpKRS_FFF/hippo/filtered_merges.sdf

>  <csv_name>  (48) 
CpKRS_iter1_knitwork_pure_split1000_batch070.csv

>  <SLURM_JOB_NAME>  (48) 
BulkDock.place:CpKRS:CpKRS_iter1_knitwork_pure_split1000_batch070

>  <name>  (48) 
VTMWMMWZOSCZEO-RKDXNWHRSA-N

>  <fragmenstein_error>  (48) 
None

>  <score_inspiration>  (48) 
0.685813

>  <HIPPO Compound ID>  (48) 
17742

>  <scratch_subdir>  (48) 
/opt/xchem-fragalysis-2/maxwin/BulkDock/SCRATCH/304110/C17742-P6

>  <distance_score>  (48) 
0.956403

>  <Merging Algorithm>  (48) 
Knitwork Pure

>  <subsites>  (48) 
None

>  <original SMILES>  (48) 
C[C@@H](N)CN1CC[C@@H](c2nccs2)C1

>  <SLURM_JOB_ID>  (48) 
304110

>  <HIPPO Pose ID>  (48) 
28588

>  <fragmenstein_mode>  (48) 
expansion

>  <ref_pdb>  (48) 
filtered_merges_wPDBs_VTMWMMWZOSCZEO-RKDXNWHRSA-N.pdb

$$$$
LYXHBZUCETXLGY-UHFFFAOYSA-N
     RDKit          3D

 14 14  0  0  0  0  0  0  0  0999 V2000
    3.7227  -17.3085   24.8323 C   0  0  0  0  0  0  0  0  0  0  0  0
    4.7776  -16.3635   25.3633 C   0  0  0  0  0  0  0  0  0  0  0  0
    5.7572  -16.7244   25.8841 O   0  0  0  0  0  0  0  0  0  0  0  0
    4.2482  -14.9322   25.1041 N   0  0  0  0  0  0  0  0  0  0  0  0
    4.7676  -13.6562   25.5154 C   0  0  0  0  0  0  0  0  0  0  0  0
    4.6586  -12.6230   24.4537 C   0  0  0  0  0  0  0  0  0  0  0  0
    4.4766  -12.7225   23.1521 N   0  0  0  0  0  0  0  0  0  0  0  0
    4.5472  -11.4397   22.6393 N   0  0  0  0  0  0  0  0  0  0  0  0
    4.7714  -10.6413   23.6601 C   0  0  0  0  0  0  0  0  0  0  0  0
    4.8980   -9.1392   23.7137 C   0  0  0  0  0  0  0  0  0  0  0  0
    5.4103   -8.5796   22.3811 C   0  0  0  0  0  0  0  0  0  0  0  0
    5.8814   -8.7249   24.8134 C   0  0  0  0  0  0  0  0  0  0  0  0
    3.5731   -8.5093   24.0043 N   0  0  0  0  0  0  0  0  0  0  0  0
    4.8284  -11.3207   24.8536 O   0  0  0  0  0  0  0  0  0  0  0  0
  1  2  1  0
  2  3  2  0
  2  4  1  0
  4  5  1  0
  5  6  1  0
  6  7  2  0
  7  8  1  0
  8  9  2  0
  9 10  1  0
 10 11  1  0
 10 12  1  0
 10 13  1  0
  9 14  1  0
 14  6  1  0
M  END
>  <inchikey>  (49) 
LYXHBZUCETXLGY-UHFFFAOYSA-N

>  <energy_score>  (49) 
-4.464509

>  <MoCASSIn MergeScore>  (49) 
0.527445

>  <fragmenstein_outcome>  (49) 
acceptable

>  <tags>  (49) 
BulkDock Fragalysis export;Active site iter1 merge poses;Fragmenstein placed

>  <fragmenstein_runtime>  (49) 
6.070219

>  <original ID>  (49) 
LYXHBZUCETXLGY-UHFFFAOYSA-N

>  <alias>  (49) 
None

>  <ref_mols>  (49) 
x0414a,x0602a

>  <exports>  (49) 
/opt/xchem-fragalysis-2/maxwin/BulkDock/OUTPUTS/CpKRS_iter1_knitwork_pure_split1000_batch010_304050.sdf;/opt/xchem-fragalysis-2/maxwin/BulkDock/OUTPUTS/CpKRS_iter1_knitwork_pure_fragalysis.sdf;/opt/xchem-fragalysis-2/maxwin/CpKRS_FFF/hippo/filtered_merges.sdf

>  <csv_name>  (49) 
CpKRS_iter1_knitwork_pure_split1000_batch010.csv

>  <SLURM_JOB_NAME>  (49) 
BulkDock.place:CpKRS:CpKRS_iter1_knitwork_pure_split1000_batch010

>  <name>  (49) 
LYXHBZUCETXLGY-UHFFFAOYSA-N

>  <fragmenstein_error>  (49) 
None

>  <score_inspiration>  (49) 
0.680504

>  <HIPPO Compound ID>  (49) 
27632

>  <scratch_subdir>  (49) 
/opt/xchem-fragalysis-2/maxwin/BulkDock/SCRATCH/304050/C27632-P39

>  <distance_score>  (49) 
0.963518

>  <Merging Algorithm>  (49) 
Knitwork Pure

>  <subsites>  (49) 
None

>  <original SMILES>  (49) 
CC(=O)NCc1nnc(C(C)(C)N)o1

>  <SLURM_JOB_ID>  (49) 
304050

>  <HIPPO Pose ID>  (49) 
30988

>  <fragmenstein_mode>  (49) 
expansion

>  <ref_pdb>  (49) 
filtered_merges_wPDBs_LYXHBZUCETXLGY-UHFFFAOYSA-N.pdb

$$$$
FSUZOFPGBAPYPL-BYPYZUCNSA-N
     RDKit          3D

 10 10  0  0  0  0  0  0  0  0999 V2000
    5.1582  -10.6577   23.9131 C   0  0  0  0  0  0  0  0  0  0  0  0
    4.0997  -11.3446   24.7689 C   0  0  2  0  0  0  0  0  0  0  0  0
    4.0006  -10.6637   26.0649 N   0  0  0  0  0  0  0  0  0  0  0  0
    4.4056  -12.8466   24.9825 C   0  0  0  0  0  0  0  0  0  0  0  0
    3.2628  -13.6115   25.5793 C   0  0  0  0  0  0  0  0  0  0  0  0
    2.9887  -14.9632   25.6384 C   0  0  0  0  0  0  0  0  0  0  0  0
    1.7339  -15.0297   26.2580 C   0  0  0  0  0  0  0  0  0  0  0  0
    0.9862  -16.1012   26.5402 O   0  0  0  0  0  0  0  0  0  0  0  0
    1.2331  -13.8469   26.5870 N   0  0  0  0  0  0  0  0  0  0  0  0
    2.2258  -13.0022   26.2481 N   0  0  0  0  0  0  0  0  0  0  0  0
  2  1  1  6
  2  3  1  0
  2  4  1  0
  4  5  1  0
  5  6  2  0
  6  7  1  0
  7  8  1  0
  7  9  2  0
  9 10  1  0
 10  5  1  0
M  END
>  <inchikey>  (50) 
FSUZOFPGBAPYPL-BYPYZUCNSA-N

>  <energy_score>  (50) 
-31.9823

>  <MoCASSIn MergeScore>  (50) 
0.285273

>  <fragmenstein_outcome>  (50) 
acceptable

>  <tags>  (50) 
BulkDock Fragalysis export;Active site iter1 merge poses;Fragmenstein placed

>  <fragmenstein_runtime>  (50) 
3.686573

>  <original ID>  (50) 
FSUZOFPGBAPYPL-BYPYZUCNSA-N

>  <alias>  (50) 
None

>  <ref_mols>  (50) 
x0414a,x0421b

>  <exports>  (50) 
/opt/xchem-fragalysis-2/maxwin/BulkDock/OUTPUTS/CpKRS_iter1_knitwork_pure_split1000_batch013_304053.sdf;/opt/xchem-fragalysis-2/maxwin/BulkDock/OUTPUTS/CpKRS_iter1_knitwork_pure_fragalysis.sdf;/opt/xchem-fragalysis-2/maxwin/CpKRS_FFF/hippo/filtered_merges.sdf

>  <csv_name>  (50) 
CpKRS_iter1_knitwork_pure_split1000_batch013.csv

>  <SLURM_JOB_NAME>  (50) 
BulkDock.place:CpKRS:CpKRS_iter1_knitwork_pure_split1000_batch013

>  <name>  (50) 
FSUZOFPGBAPYPL-BYPYZUCNSA-N

>  <fragmenstein_error>  (50) 
None

>  <score_inspiration>  (50) 
0.521757

>  <HIPPO Compound ID>  (50) 
7579

>  <scratch_subdir>  (50) 
/opt/xchem-fragalysis-2/maxwin/BulkDock/SCRATCH/304053/C7579-P6

>  <distance_score>  (50) 
0.989104

>  <Merging Algorithm>  (50) 
Knitwork Pure

>  <subsites>  (50) 
None

>  <original SMILES>  (50) 
C[C@H](N)Cc1cc(O)n[nH]1

>  <SLURM_JOB_ID>  (50) 
304053

>  <HIPPO Pose ID>  (50) 
31026

>  <fragmenstein_mode>  (50) 
expansion

>  <ref_pdb>  (50) 
filtered_merges_wPDBs_FSUZOFPGBAPYPL-BYPYZUCNSA-N.pdb

$$$$
FJSUOWBBQUIZGY-SCSAIBSYSA-N
     RDKit          3D

 11 11  0  0  0  0  0  0  0  0999 V2000
    5.9416   -7.6560   23.6893 C   0  0  0  0  0  0  0  0  0  0  0  0
    4.9297   -8.5444   24.4048 C   0  0  1  0  0  0  0  0  0  0  0  0
    3.7337   -8.7054   23.5426 N   0  0  0  0  0  0  0  0  0  0  0  0
    5.6225   -9.8643   24.7979 C   0  0  0  0  0  0  0  0  0  0  0  0
    4.6748  -10.9597   25.1618 C   0  0  0  0  0  0  0  0  0  0  0  0
    3.9474  -11.0206   26.3966 C   0  0  0  0  0  0  0  0  0  0  0  0
    3.1030  -12.0971   26.4061 C   0  0  0  0  0  0  0  0  0  0  0  0
    1.9550  -12.4919   27.5815 Cl  0  0  0  0  0  0  0  0  0  0  0  0
    3.2208  -13.0877   25.0499 S   0  0  0  0  0  0  0  0  0  0  0  0
    4.2975  -12.0029   24.3384 C   0  0  0  0  0  0  0  0  0  0  0  0
    4.7241  -12.2702   22.6955 Cl  0  0  0  0  0  0  0  0  0  0  0  0
  2  1  1  6
  2  3  1  0
  2  4  1  0
  4  5  1  0
  5  6  1  0
  6  7  2  0
  7  8  1  0
  7  9  1  0
  9 10  1  0
 10 11  1  0
 10  5  2  0
M  END
>  <inchikey>  (51) 
FJSUOWBBQUIZGY-SCSAIBSYSA-N

>  <energy_score>  (51) 
-32.539885

>  <MoCASSIn MergeScore>  (51) 
0.330467

>  <fragmenstein_outcome>  (51) 
acceptable

>  <tags>  (51) 
BulkDock Fragalysis export;Active site iter1 merge poses;Fragmenstein placed

>  <fragmenstein_runtime>  (51) 
4.538172

>  <original ID>  (51) 
FJSUOWBBQUIZGY-SCSAIBSYSA-N

>  <alias>  (51) 
None

>  <ref_mols>  (51) 
x0414a,x0787a

>  <exports>  (51) 
/opt/xchem-fragalysis-2/maxwin/BulkDock/OUTPUTS/CpKRS_iter1_knitwork_pure_split1000_batch111_304151.sdf;/opt/xchem-fragalysis-2/maxwin/BulkDock/OUTPUTS/CpKRS_iter1_knitwork_pure_fragalysis.sdf;/opt/xchem-fragalysis-2/maxwin/CpKRS_FFF/hippo/filtered_merges.sdf

>  <csv_name>  (51) 
CpKRS_iter1_knitwork_pure_split1000_batch111.csv

>  <SLURM_JOB_NAME>  (51) 
BulkDock.place:CpKRS:CpKRS_iter1_knitwork_pure_split1000_batch111

>  <name>  (51) 
FJSUOWBBQUIZGY-SCSAIBSYSA-N

>  <fragmenstein_error>  (51) 
None

>  <score_inspiration>  (51) 
0.541666

>  <HIPPO Compound ID>  (51) 
23566

>  <scratch_subdir>  (51) 
/opt/xchem-fragalysis-2/maxwin/BulkDock/SCRATCH/304151/C23566-P6

>  <distance_score>  (51) 
0.999721

>  <Merging Algorithm>  (51) 
Knitwork Pure

>  <subsites>  (51) 
None

>  <original SMILES>  (51) 
C[C@@H](N)Cc1cc(Cl)sc1Cl

>  <SLURM_JOB_ID>  (51) 
304151

>  <HIPPO Pose ID>  (51) 
32590

>  <fragmenstein_mode>  (51) 
expansion

>  <ref_pdb>  (51) 
filtered_merges_wPDBs_FJSUOWBBQUIZGY-SCSAIBSYSA-N.pdb

$$$$
VTMWMMWZOSCZEO-RKDXNWHRSA-N
     RDKit          3D

 14 15  0  0  0  0  0  0  0  0999 V2000
    5.8288   -7.9185   23.1776 C   0  0  0  0  0  0  0  0  0  0  0  0
    4.9787   -8.6027   24.2419 C   0  0  1  0  0  0  0  0  0  0  0  0
    3.6236   -8.8507   23.6992 N   0  0  0  0  0  0  0  0  0  0  0  0
    5.7259   -9.8773   24.7152 C   0  0  0  0  0  0  0  0  0  0  0  0
    5.1225  -10.7460   25.7048 N   0  0  0  0  0  0  0  0  0  0  0  0
    4.4808  -10.1356   26.8612 C   0  0  0  0  0  0  0  0  0  0  0  0
    3.5171  -11.2016   27.3755 C   0  0  0  0  0  0  0  0  0  0  0  0
    3.8553  -12.4418   26.5571 C   0  0  1  0  0  0  0  0  0  0  0  0
    2.8057  -13.4909   26.4152 C   0  0  0  0  0  0  0  0  0  0  0  0
    3.0961  -14.7251   26.0518 N   0  0  0  0  0  0  0  0  0  0  0  0
    1.9744  -15.5203   26.1409 C   0  0  0  0  0  0  0  0  0  0  0  0
    0.8118  -14.8657   26.4759 C   0  0  0  0  0  0  0  0  0  0  0  0
    1.1311  -13.2035   26.6994 S   0  0  0  0  0  0  0  0  0  0  0  0
    4.2907  -11.8427   25.2295 C   0  0  0  0  0  0  0  0  0  0  0  0
  2  1  1  6
  2  3  1  0
  2  4  1  0
  4  5  1  0
  5  6  1  0
  6  7  1  0
  7  8  1  0
  8  9  1  6
  9 10  2  0
 10 11  1  0
 11 12  2  0
 12 13  1  0
  8 14  1  0
 14  5  1  0
 13  9  1  0
M  END
>  <inchikey>  (52) 
VTMWMMWZOSCZEO-RKDXNWHRSA-N

>  <energy_score>  (52) 
-81.6655

>  <MoCASSIn MergeScore>  (52) 
0.571916

>  <fragmenstein_outcome>  (52) 
acceptable

>  <tags>  (52) 
BulkDock Fragalysis export;Active site iter1 merge poses;Fragmenstein placed

>  <fragmenstein_runtime>  (52) 
4.044501

>  <original ID>  (52) 
VTMWMMWZOSCZEO-RKDXNWHRSA-N

>  <alias>  (52) 
None

>  <ref_mols>  (52) 
x0414a,x0504a

>  <exports>  (52) 
/opt/xchem-fragalysis-2/maxwin/BulkDock/OUTPUTS/CpKRS_iter1_knitwork_pure_split1000_batch068_304108.sdf;/opt/xchem-fragalysis-2/maxwin/BulkDock/OUTPUTS/CpKRS_iter1_knitwork_pure_fragalysis.sdf;/opt/xchem-fragalysis-2/maxwin/CpKRS_FFF/hippo/filtered_merges.sdf

>  <csv_name>  (52) 
CpKRS_iter1_knitwork_pure_split1000_batch068.csv

>  <SLURM_JOB_NAME>  (52) 
BulkDock.place:CpKRS:CpKRS_iter1_knitwork_pure_split1000_batch068

>  <name>  (52) 
VTMWMMWZOSCZEO-RKDXNWHRSA-N

>  <fragmenstein_error>  (52) 
None

>  <score_inspiration>  (52) 
0.716114

>  <HIPPO Compound ID>  (52) 
17742

>  <scratch_subdir>  (52) 
/opt/xchem-fragalysis-2/maxwin/BulkDock/SCRATCH/304108/C17742-P6

>  <distance_score>  (52) 
0.87243

>  <Merging Algorithm>  (52) 
Knitwork Pure

>  <subsites>  (52) 
None

>  <original SMILES>  (52) 
C[C@@H](N)CN1CC[C@@H](c2nccs2)C1

>  <SLURM_JOB_ID>  (52) 
304108

>  <HIPPO Pose ID>  (52) 
33409

>  <fragmenstein_mode>  (52) 
expansion

>  <ref_pdb>  (52) 
filtered_merges_wPDBs_VTMWMMWZOSCZEO-RKDXNWHRSA-N.pdb

$$$$
DOLYSXYXFUOJDB-GFCCVEGCSA-N
     RDKit          3D

 17 18  0  0  0  0  0  0  0  0999 V2000
    5.8773   -8.1754   23.6486 C   0  0  0  0  0  0  0  0  0  0  0  0
    4.9356   -8.9064   24.5994 C   0  0  2  0  0  0  0  0  0  0  0  0
    5.6632  -10.0410   25.3801 C   0  0  0  0  0  0  0  0  0  0  0  0
    4.7808  -11.0483   25.9405 N   0  0  0  0  0  0  0  0  0  0  0  0
    3.9870  -10.6543   27.0848 C   0  0  0  0  0  0  0  0  0  0  0  0
    2.7372  -11.5225   27.1023 C   0  0  0  0  0  0  0  0  0  0  0  0
    2.9628  -13.0041   26.8147 C   0  0  0  0  0  0  0  0  0  0  0  0
    4.2475  -13.3966   26.0964 C   0  0  0  0  0  0  0  0  0  0  0  0
    5.3590  -12.3606   26.1287 C   0  0  0  0  0  0  0  0  0  0  0  0
    3.6547   -9.2661   23.9097 N   0  0  0  0  0  0  0  0  0  0  0  0
    3.4856  -10.5763   23.4071 C   0  0  0  0  0  0  0  0  0  0  0  0
    2.2366  -11.1949   23.5730 C   0  0  0  0  0  0  0  0  0  0  0  0
    2.0424  -12.5388   23.2456 C   0  0  0  0  0  0  0  0  0  0  0  0
    3.0837  -13.2867   22.7057 C   0  0  0  0  0  0  0  0  0  0  0  0
    2.8808  -14.6143   22.3269 N   0  0  0  0  0  0  0  0  0  0  0  0
    4.2758  -12.6338   22.3927 C   0  0  0  0  0  0  0  0  0  0  0  0
    4.4705  -11.2882   22.7249 C   0  0  0  0  0  0  0  0  0  0  0  0
  2  1  1  6
  2  3  1  0
  3  4  1  0
  4  5  1  0
  5  6  1  0
  6  7  1  0
  7  8  1  0
  8  9  1  0
  2 10  1  0
 10 11  1  0
 11 12  2  0
 12 13  1  0
 13 14  2  0
 14 15  1  0
 14 16  1  0
 16 17  2  0
  9  4  1  0
 17 11  1  0
M  END
>  <inchikey>  (53) 
DOLYSXYXFUOJDB-GFCCVEGCSA-N

>  <energy_score>  (53) 
-21.312844

>  <MoCASSIn MergeScore>  (53) 
0.450759

>  <fragmenstein_outcome>  (53) 
acceptable

>  <tags>  (53) 
BulkDock Fragalysis export;Active site iter1 merge poses;Fragmenstein placed

>  <fragmenstein_runtime>  (53) 
4.691219

>  <original ID>  (53) 
DOLYSXYXFUOJDB-GFCCVEGCSA-N

>  <alias>  (53) 
None

>  <ref_mols>  (53) 
x0414a,x0489a

>  <exports>  (53) 
/opt/xchem-fragalysis-2/maxwin/BulkDock/OUTPUTS/CpKRS_iter1_knitwork_pure_split1000_batch008_304048.sdf;/opt/xchem-fragalysis-2/maxwin/BulkDock/OUTPUTS/CpKRS_iter1_knitwork_pure_fragalysis.sdf;/opt/xchem-fragalysis-2/maxwin/CpKRS_FFF/hippo/filtered_merges.sdf

>  <csv_name>  (53) 
CpKRS_iter1_knitwork_pure_split1000_batch008.csv

>  <SLURM_JOB_NAME>  (53) 
BulkDock.place:CpKRS:CpKRS_iter1_knitwork_pure_split1000_batch008

>  <name>  (53) 
DOLYSXYXFUOJDB-GFCCVEGCSA-N

>  <fragmenstein_error>  (53) 
None

>  <score_inspiration>  (53) 
0.58476

>  <HIPPO Compound ID>  (53) 
18970

>  <scratch_subdir>  (53) 
/opt/xchem-fragalysis-2/maxwin/BulkDock/SCRATCH/304048/C18970-P6

>  <distance_score>  (53) 
0.988875

>  <Merging Algorithm>  (53) 
Knitwork Pure

>  <subsites>  (53) 
None

>  <original SMILES>  (53) 
C[C@H](CN1CCCCC1)Nc1ccc(N)cc1

>  <SLURM_JOB_ID>  (53) 
304048

>  <HIPPO Pose ID>  (53) 
35235

>  <fragmenstein_mode>  (53) 
expansion

>  <ref_pdb>  (53) 
filtered_merges_wPDBs_DOLYSXYXFUOJDB-GFCCVEGCSA-N.pdb

$$$$
NFFXHWPBOGQOAI-UHFFFAOYSA-N
     RDKit          3D

 10 10  0  0  0  0  0  0  0  0999 V2000
    5.7141   -7.4837   23.7070 C   0  0  0  0  0  0  0  0  0  0  0  0
    5.3335   -8.8779   24.1771 C   0  0  0  0  0  0  0  0  0  0  0  0
    5.4222   -9.8333   22.9918 C   0  0  0  0  0  0  0  0  0  0  0  0
    3.9628   -8.8797   24.7343 N   0  0  0  0  0  0  0  0  0  0  0  0
    3.7743  -10.0907   25.4701 C   0  0  0  0  0  0  0  0  0  0  0  0
    4.3608  -10.2514   26.7290 C   0  0  0  0  0  0  0  0  0  0  0  0
    4.5281  -11.4513   27.3257 N   0  0  0  0  0  0  0  0  0  0  0  0
    4.0108  -12.4965   26.6425 C   0  0  0  0  0  0  0  0  0  0  0  0
    3.3776  -12.3542   25.4277 C   0  0  0  0  0  0  0  0  0  0  0  0
    3.2672  -11.1574   24.8166 N   0  0  0  0  0  0  0  0  0  0  0  0
  1  2  1  0
  2  3  1  0
  2  4  1  0
  4  5  1  0
  5  6  2  0
  6  7  1  0
  7  8  2  0
  8  9  1  0
  9 10  2  0
 10  5  1  0
M  END
>  <inchikey>  (54) 
NFFXHWPBOGQOAI-UHFFFAOYSA-N

>  <energy_score>  (54) 
-8.716074

>  <MoCASSIn MergeScore>  (54) 
0.23948

>  <fragmenstein_outcome>  (54) 
acceptable

>  <tags>  (54) 
BulkDock Fragalysis export;Active site iter1 merge poses;Fragmenstein placed

>  <fragmenstein_runtime>  (54) 
3.78105

>  <original ID>  (54) 
NFFXHWPBOGQOAI-UHFFFAOYSA-N

>  <alias>  (54) 
None

>  <ref_mols>  (54) 
x0414a,x0489a,x0492a,x0492b

>  <exports>  (54) 
/opt/xchem-fragalysis-2/maxwin/BulkDock/OUTPUTS/CpKRS_iter1_knitwork_pure_split1000_batch008_304048.sdf;/opt/xchem-fragalysis-2/maxwin/BulkDock/OUTPUTS/CpKRS_iter1_knitwork_pure_fragalysis.sdf;/opt/xchem-fragalysis-2/maxwin/CpKRS_FFF/hippo/filtered_merges.sdf

>  <csv_name>  (54) 
CpKRS_iter1_knitwork_pure_split1000_batch008.csv

>  <SLURM_JOB_NAME>  (54) 
BulkDock.place:CpKRS:CpKRS_iter1_knitwork_pure_split1000_batch008

>  <name>  (54) 
NFFXHWPBOGQOAI-UHFFFAOYSA-N

>  <fragmenstein_error>  (54) 
None

>  <score_inspiration>  (54) 
0.523011

>  <HIPPO Compound ID>  (54) 
19047

>  <scratch_subdir>  (54) 
/opt/xchem-fragalysis-2/maxwin/BulkDock/SCRATCH/304048/C19047-P6

>  <distance_score>  (54) 
1.988633

>  <Merging Algorithm>  (54) 
Knitwork Pure

>  <subsites>  (54) 
None

>  <original SMILES>  (54) 
CC(C)Nc1cnccn1

>  <SLURM_JOB_ID>  (54) 
304048

>  <HIPPO Pose ID>  (54) 
37239

>  <fragmenstein_mode>  (54) 
expansion

>  <ref_pdb>  (54) 
filtered_merges_wPDBs_NFFXHWPBOGQOAI-UHFFFAOYSA-N.pdb

$$$$
MTRNCYITAFTDBJ-UHFFFAOYSA-N
     RDKit          3D

 15 16  0  0  0  0  0  0  0  0999 V2000
    4.2922  -12.6329   23.4648 C   0  0  0  0  0  0  0  0  0  0  0  0
    3.4795  -11.3630   23.8290 C   0  0  0  0  0  0  0  0  0  0  0  0
    2.1305  -11.5302   23.1187 C   0  0  0  0  0  0  0  0  0  0  0  0
    3.1066  -11.3897   25.2631 N   0  0  0  0  0  0  0  0  0  0  0  0
    4.1578  -11.1551   26.1500 C   0  0  0  0  0  0  0  0  0  0  0  0
    3.8819  -10.9915   27.4930 C   0  0  0  0  0  0  0  0  0  0  0  0
    4.8512  -10.7887   28.3940 N   0  0  0  0  0  0  0  0  0  0  0  0
    6.1112  -10.7861   27.9210 C   0  0  0  0  0  0  0  0  0  0  0  0
    6.3980  -10.9426   26.6010 C   0  0  0  0  0  0  0  0  0  0  0  0
    5.4304  -11.1296   25.7011 N   0  0  0  0  0  0  0  0  0  0  0  0
    4.1781  -10.0807   23.3704 C   0  0  0  0  0  0  0  0  0  0  0  0
    5.4012  -10.0824   22.7460 N   0  0  0  0  0  0  0  0  0  0  0  0
    5.8786   -8.8509   22.8386 N   0  0  0  0  0  0  0  0  0  0  0  0
    4.9699   -8.1952   23.5554 N   0  0  0  0  0  0  0  0  0  0  0  0
    3.7963   -8.8382   23.7569 N   0  0  0  0  0  0  0  0  0  0  0  0
  1  2  1  0
  2  3  1  0
  2  4  1  0
  4  5  1  0
  5  6  2  0
  6  7  1  0
  7  8  2  0
  8  9  1  0
  9 10  2  0
  2 11  1  0
 11 12  1  0
 12 13  2  0
 13 14  1  0
 14 15  1  0
 10  5  1  0
 15 11  2  0
M  END
>  <inchikey>  (55) 
MTRNCYITAFTDBJ-UHFFFAOYSA-N

>  <energy_score>  (55) 
-35.56529

>  <MoCASSIn MergeScore>  (55) 
0.284752

>  <fragmenstein_outcome>  (55) 
acceptable

>  <tags>  (55) 
BulkDock Fragalysis export;Active site iter1 merge poses;Fragmenstein placed

>  <fragmenstein_runtime>  (55) 
10.212362

>  <original ID>  (55) 
MTRNCYITAFTDBJ-UHFFFAOYSA-N

>  <alias>  (55) 
None

>  <ref_mols>  (55) 
x0414a,x0489a,x0492a

>  <exports>  (55) 
/opt/xchem-fragalysis-2/maxwin/BulkDock/OUTPUTS/CpKRS_iter1_knitwork_pure_split1000_batch008_304048.sdf;/opt/xchem-fragalysis-2/maxwin/BulkDock/OUTPUTS/CpKRS_iter1_knitwork_pure_fragalysis.sdf;/opt/xchem-fragalysis-2/maxwin/CpKRS_FFF/hippo/filtered_merges.sdf

>  <csv_name>  (55) 
CpKRS_iter1_knitwork_pure_split1000_batch008.csv

>  <SLURM_JOB_NAME>  (55) 
BulkDock.place:CpKRS:CpKRS_iter1_knitwork_pure_split1000_batch008

>  <name>  (55) 
MTRNCYITAFTDBJ-UHFFFAOYSA-N

>  <fragmenstein_error>  (55) 
None

>  <score_inspiration>  (55) 
0.479715

>  <HIPPO Compound ID>  (55) 
997

>  <scratch_subdir>  (55) 
/opt/xchem-fragalysis-2/maxwin/BulkDock/SCRATCH/304048/C997-P6

>  <distance_score>  (55) 
1.315287

>  <Merging Algorithm>  (55) 
Knitwork Pure

>  <subsites>  (55) 
None

>  <original SMILES>  (55) 
CC(C)(Nc1cnccn1)c1nn[nH]n1

>  <SLURM_JOB_ID>  (55) 
304048

>  <HIPPO Pose ID>  (55) 
37379

>  <fragmenstein_mode>  (55) 
expansion

>  <ref_pdb>  (55) 
filtered_merges_wPDBs_MTRNCYITAFTDBJ-UHFFFAOYSA-N.pdb

$$$$
NRSJBZYWOZHGJJ-VIFPVBQESA-N
     RDKit          3D

 18 19  0  0  0  0  0  0  0  0999 V2000
    0.1011  -12.1242   25.2685 C   0  0  0  0  0  0  0  0  0  0  0  0
    1.6173  -12.1965   25.0421 C   0  0  1  0  0  0  0  0  0  0  0  0
    2.0878  -13.6795   25.0148 C   0  0  0  0  0  0  0  0  0  0  0  0
    2.7509  -14.2364   26.2500 C   0  0  0  0  0  0  0  0  0  0  0  0
    2.0227  -14.4432   27.4174 C   0  0  0  0  0  0  0  0  0  0  0  0
    2.4621  -15.1906   28.4617 N   0  0  0  0  0  0  0  0  0  0  0  0
    3.6974  -15.7141   28.2843 C   0  0  0  0  0  0  0  0  0  0  0  0
    4.4604  -15.4711   27.1551 C   0  0  0  0  0  0  0  0  0  0  0  0
    4.0148  -14.7165   26.1301 N   0  0  0  0  0  0  0  0  0  0  0  0
    1.8675  -11.4981   23.7294 N   0  0  0  0  0  0  0  0  0  0  0  0
    3.1998  -11.0514   23.7620 C   0  0  0  0  0  0  0  0  0  0  0  0
    3.5187   -9.7151   23.8321 C   0  0  0  0  0  0  0  0  0  0  0  0
    4.8395   -9.4257   24.1089 C   0  0  0  0  0  0  0  0  0  0  0  0
    5.3690   -8.0238   24.0399 C   0  0  0  0  0  0  0  0  0  0  0  0
    5.6518   -7.6757   22.6882 O   0  0  0  0  0  0  0  0  0  0  0  0
    5.7250  -10.3872   24.4212 N   0  0  0  0  0  0  0  0  0  0  0  0
    5.2772  -11.6424   24.3481 C   0  0  0  0  0  0  0  0  0  0  0  0
    4.1008  -12.0136   23.8896 N   0  0  0  0  0  0  0  0  0  0  0  0
  2  1  1  6
  2  3  1  0
  3  4  1  0
  4  5  2  0
  5  6  1  0
  6  7  2  0
  7  8  1  0
  8  9  2  0
  2 10  1  0
 10 11  1  0
 11 12  2  0
 12 13  1  0
 13 14  1  0
 14 15  1  0
 13 16  2  0
 16 17  1  0
 17 18  2  0
  9  4  1  0
 18 11  1  0
M  END
>  <inchikey>  (56) 
NRSJBZYWOZHGJJ-VIFPVBQESA-N

>  <energy_score>  (56) 
-8.407683

>  <MoCASSIn MergeScore>  (56) 
0.409907

>  <fragmenstein_outcome>  (56) 
acceptable

>  <tags>  (56) 
BulkDock Fragalysis export;Active site iter1 merge poses;Fragmenstein placed

>  <fragmenstein_runtime>  (56) 
8.584835

>  <original ID>  (56) 
NRSJBZYWOZHGJJ-VIFPVBQESA-N

>  <alias>  (56) 
None

>  <ref_mols>  (56) 
x0414a,x0489a

>  <exports>  (56) 
/opt/xchem-fragalysis-2/maxwin/BulkDock/OUTPUTS/CpKRS_iter1_knitwork_pure_split1000_batch008_304048.sdf;/opt/xchem-fragalysis-2/maxwin/BulkDock/OUTPUTS/CpKRS_iter1_knitwork_pure_fragalysis.sdf;/opt/xchem-fragalysis-2/maxwin/CpKRS_FFF/hippo/filtered_merges.sdf

>  <csv_name>  (56) 
CpKRS_iter1_knitwork_pure_split1000_batch008.csv

>  <SLURM_JOB_NAME>  (56) 
BulkDock.place:CpKRS:CpKRS_iter1_knitwork_pure_split1000_batch008

>  <name>  (56) 
NRSJBZYWOZHGJJ-VIFPVBQESA-N

>  <fragmenstein_error>  (56) 
None

>  <score_inspiration>  (56) 
0.537178

>  <HIPPO Compound ID>  (56) 
1083

>  <scratch_subdir>  (56) 
/opt/xchem-fragalysis-2/maxwin/BulkDock/SCRATCH/304048/C1083-P33

>  <distance_score>  (56) 
0.983876

>  <Merging Algorithm>  (56) 
Knitwork Pure

>  <subsites>  (56) 
None

>  <original SMILES>  (56) 
C[C@@H](Cc1cnccn1)Nc1cc(CO)ncn1

>  <SLURM_JOB_ID>  (56) 
304048

>  <HIPPO Pose ID>  (56) 
38845

>  <fragmenstein_mode>  (56) 
expansion

>  <ref_pdb>  (56) 
filtered_merges_wPDBs_NRSJBZYWOZHGJJ-VIFPVBQESA-N.pdb

$$$$
OKWKKGILOAMUGL-ZETCQYMHSA-N
     RDKit          3D

 10 10  0  0  0  0  0  0  0  0999 V2000
    4.8988  -11.5595   22.2330 C   0  0  0  0  0  0  0  0  0  0  0  0
    4.0736  -11.9505   23.4588 C   0  0  2  0  0  0  0  0  0  0  0  0
    4.0092  -10.7699   24.3256 N   0  0  0  0  0  0  0  0  0  0  0  0
    4.6881  -13.1848   24.1423 C   0  0  0  0  0  0  0  0  0  0  0  0
    3.9419  -13.8609   25.2616 C   0  0  0  0  0  0  0  0  0  0  0  0
    2.5737  -13.7063   25.4687 C   0  0  0  0  0  0  0  0  0  0  0  0
    1.9668  -14.3874   26.5208 C   0  0  0  0  0  0  0  0  0  0  0  0
    2.7311  -15.2199   27.3246 C   0  0  0  0  0  0  0  0  0  0  0  0
    4.0801  -15.3301   27.0446 C   0  0  0  0  0  0  0  0  0  0  0  0
    4.7035  -14.6728   26.0443 N   0  0  0  0  0  0  0  0  0  0  0  0
  2  1  1  6
  2  3  1  0
  2  4  1  0
  4  5  1  0
  5  6  2  0
  6  7  1  0
  7  8  2  0
  8  9  1  0
  9 10  2  0
 10  5  1  0
M  END
>  <inchikey>  (57) 
OKWKKGILOAMUGL-ZETCQYMHSA-N

>  <energy_score>  (57) 
-7.926724

>  <MoCASSIn MergeScore>  (57) 
0.39813

>  <fragmenstein_outcome>  (57) 
acceptable

>  <tags>  (57) 
BulkDock Fragalysis export;Active site iter1 merge poses;Fragmenstein placed

>  <fragmenstein_runtime>  (57) 
4.090441

>  <original ID>  (57) 
OKWKKGILOAMUGL-ZETCQYMHSA-N

>  <alias>  (57) 
None

>  <ref_mols>  (57) 
x0414a,x0634b

>  <exports>  (57) 
/opt/xchem-fragalysis-2/maxwin/BulkDock/OUTPUTS/CpKRS_iter1_knitwork_pure_split1000_batch010_304050.sdf;/opt/xchem-fragalysis-2/maxwin/BulkDock/OUTPUTS/CpKRS_iter1_knitwork_pure_fragalysis.sdf;/opt/xchem-fragalysis-2/maxwin/CpKRS_FFF/hippo/filtered_merges.sdf

>  <csv_name>  (57) 
CpKRS_iter1_knitwork_pure_split1000_batch010.csv

>  <SLURM_JOB_NAME>  (57) 
BulkDock.place:CpKRS:CpKRS_iter1_knitwork_pure_split1000_batch010

>  <name>  (57) 
OKWKKGILOAMUGL-ZETCQYMHSA-N

>  <fragmenstein_error>  (57) 
None

>  <score_inspiration>  (57) 
0.638507

>  <HIPPO Compound ID>  (57) 
3555

>  <scratch_subdir>  (57) 
/opt/xchem-fragalysis-2/maxwin/BulkDock/SCRATCH/304050/C3555-P51

>  <distance_score>  (57) 
0.943468

>  <Merging Algorithm>  (57) 
Knitwork Pure

>  <subsites>  (57) 
None

>  <original SMILES>  (57) 
C[C@H](N)Cc1ccccn1

>  <SLURM_JOB_ID>  (57) 
304050

>  <HIPPO Pose ID>  (57) 
38885

>  <fragmenstein_mode>  (57) 
expansion

>  <ref_pdb>  (57) 
filtered_merges_wPDBs_OKWKKGILOAMUGL-ZETCQYMHSA-N.pdb

$$$$
RQSNYOSCKUZYPE-JTQLQIEISA-N
     RDKit          3D

 18 19  0  0  0  0  0  0  0  0999 V2000
   -0.0171  -12.0189   25.2799 C   0  0  0  0  0  0  0  0  0  0  0  0
    1.4933  -12.2247   25.0838 C   0  0  1  0  0  0  0  0  0  0  0  0
    1.8054  -13.7360   25.1021 C   0  0  0  0  0  0  0  0  0  0  0  0
    2.5874  -14.2640   26.2813 C   0  0  0  0  0  0  0  0  0  0  0  0
    1.9567  -14.4474   27.5076 C   0  0  0  0  0  0  0  0  0  0  0  0
    2.4771  -15.1797   28.5232 N   0  0  0  0  0  0  0  0  0  0  0  0
    3.7000  -15.6972   28.2606 C   0  0  0  0  0  0  0  0  0  0  0  0
    4.3750  -15.4622   27.0748 C   0  0  0  0  0  0  0  0  0  0  0  0
    3.8436  -14.7300   26.0730 N   0  0  0  0  0  0  0  0  0  0  0  0
    1.8497  -11.6014   23.7712 N   0  0  0  0  0  0  0  0  0  0  0  0
    3.1925  -11.1606   23.7814 C   0  0  0  0  0  0  0  0  0  0  0  0
    4.1961  -12.0812   24.0004 C   0  0  0  0  0  0  0  0  0  0  0  0
    5.3865  -11.6079   24.4502 C   0  0  0  0  0  0  0  0  0  0  0  0
    5.7492  -10.3146   24.4541 N   0  0  0  0  0  0  0  0  0  0  0  0
    4.8288   -9.4256   24.0434 C   0  0  0  0  0  0  0  0  0  0  0  0
    5.2913   -8.0034   23.9276 C   0  0  0  0  0  0  0  0  0  0  0  0
    5.5085   -7.6559   22.5654 O   0  0  0  0  0  0  0  0  0  0  0  0
    3.5233   -9.8035   23.7409 C   0  0  0  0  0  0  0  0  0  0  0  0
  2  1  1  6
  2  3  1  0
  3  4  1  0
  4  5  2  0
  5  6  1  0
  6  7  2  0
  7  8  1  0
  8  9  2  0
  2 10  1  0
 10 11  1  0
 11 12  2  0
 12 13  1  0
 13 14  2  0
 14 15  1  0
 15 16  1  0
 16 17  1  0
 15 18  2  0
  9  4  1  0
 18 11  1  0
M  END
>  <inchikey>  (58) 
RQSNYOSCKUZYPE-JTQLQIEISA-N

>  <energy_score>  (58) 
-1.231899

>  <MoCASSIn MergeScore>  (58) 
0.405581

>  <fragmenstein_outcome>  (58) 
acceptable

>  <tags>  (58) 
BulkDock Fragalysis export;Active site iter1 merge poses;Fragmenstein placed

>  <fragmenstein_runtime>  (58) 
13.564834

>  <original ID>  (58) 
RQSNYOSCKUZYPE-JTQLQIEISA-N

>  <alias>  (58) 
None

>  <ref_mols>  (58) 
x0414a,x0489a

>  <exports>  (58) 
/opt/xchem-fragalysis-2/maxwin/BulkDock/OUTPUTS/CpKRS_iter1_knitwork_pure_split1000_batch008_304048.sdf;/opt/xchem-fragalysis-2/maxwin/BulkDock/OUTPUTS/CpKRS_iter1_knitwork_pure_fragalysis.sdf;/opt/xchem-fragalysis-2/maxwin/CpKRS_FFF/hippo/filtered_merges.sdf

>  <csv_name>  (58) 
CpKRS_iter1_knitwork_pure_split1000_batch008.csv

>  <SLURM_JOB_NAME>  (58) 
BulkDock.place:CpKRS:CpKRS_iter1_knitwork_pure_split1000_batch008

>  <name>  (58) 
RQSNYOSCKUZYPE-JTQLQIEISA-N

>  <fragmenstein_error>  (58) 
None

>  <score_inspiration>  (58) 
0.532985

>  <HIPPO Compound ID>  (58) 
1086

>  <scratch_subdir>  (58) 
/opt/xchem-fragalysis-2/maxwin/BulkDock/SCRATCH/304048/C1086-P33

>  <distance_score>  (58) 
0.990621

>  <Merging Algorithm>  (58) 
Knitwork Pure

>  <subsites>  (58) 
None

>  <original SMILES>  (58) 
C[C@@H](Cc1cnccn1)Nc1ccnc(CO)c1

>  <SLURM_JOB_ID>  (58) 
304048

>  <HIPPO Pose ID>  (58) 
38891

>  <fragmenstein_mode>  (58) 
expansion

>  <ref_pdb>  (58) 
filtered_merges_wPDBs_RQSNYOSCKUZYPE-JTQLQIEISA-N.pdb

$$$$
BCPAUKREVURYGD-MRVPVSSYSA-N
     RDKit          3D

 15 16  0  0  0  0  0  0  0  0999 V2000
    5.9661   -7.4499   23.9475 C   0  0  0  0  0  0  0  0  0  0  0  0
    5.1253   -8.6897   24.2050 C   0  0  1  0  0  0  0  0  0  0  0  0
    4.0281   -8.3316   25.0995 N   0  0  0  0  0  0  0  0  0  0  0  0
    4.6142   -9.3001   22.8861 C   0  0  0  0  0  0  0  0  0  0  0  0
    4.4636  -10.7810   23.0334 C   0  0  0  0  0  0  0  0  0  0  0  0
    3.8388  -11.3709   24.0293 N   0  0  0  0  0  0  0  0  0  0  0  0
    4.1410  -12.7269   24.0283 C   0  0  0  0  0  0  0  0  0  0  0  0
    3.7398  -13.6119   25.1095 C   0  0  0  0  0  0  0  0  0  0  0  0
    2.4443  -13.5309   25.6115 C   0  0  0  0  0  0  0  0  0  0  0  0
    2.0838  -14.3629   26.6657 C   0  0  0  0  0  0  0  0  0  0  0  0
    3.0282  -15.2346   27.1913 C   0  0  0  0  0  0  0  0  0  0  0  0
    4.3010  -15.2318   26.6412 C   0  0  0  0  0  0  0  0  0  0  0  0
    4.6889  -14.4463   25.6110 N   0  0  0  0  0  0  0  0  0  0  0  0
    4.8448  -13.1469   22.9242 C   0  0  0  0  0  0  0  0  0  0  0  0
    5.1908  -11.8276   21.9066 S   0  0  0  0  0  0  0  0  0  0  0  0
  2  1  1  6
  2  3  1  0
  2  4  1  0
  4  5  1  0
  5  6  2  0
  6  7  1  0
  7  8  1  0
  8  9  2  0
  9 10  1  0
 10 11  2  0
 11 12  1  0
 12 13  2  0
  7 14  2  0
 14 15  1  0
 15  5  1  0
 13  8  1  0
M  END
>  <inchikey>  (59) 
BCPAUKREVURYGD-MRVPVSSYSA-N

>  <energy_score>  (59) 
-50.880998

>  <MoCASSIn MergeScore>  (59) 
0.404354

>  <fragmenstein_outcome>  (59) 
acceptable

>  <tags>  (59) 
BulkDock Fragalysis export;Active site iter1 merge poses;Fragmenstein placed

>  <fragmenstein_runtime>  (59) 
5.284322

>  <original ID>  (59) 
BCPAUKREVURYGD-MRVPVSSYSA-N

>  <alias>  (59) 
None

>  <ref_mols>  (59) 
x0414a,x0634b

>  <exports>  (59) 
/opt/xchem-fragalysis-2/maxwin/BulkDock/OUTPUTS/CpKRS_iter1_knitwork_pure_split1000_batch010_304050.sdf;/opt/xchem-fragalysis-2/maxwin/BulkDock/OUTPUTS/CpKRS_iter1_knitwork_pure_fragalysis.sdf;/opt/xchem-fragalysis-2/maxwin/CpKRS_FFF/hippo/filtered_merges.sdf

>  <csv_name>  (59) 
CpKRS_iter1_knitwork_pure_split1000_batch010.csv

>  <SLURM_JOB_NAME>  (59) 
BulkDock.place:CpKRS:CpKRS_iter1_knitwork_pure_split1000_batch010

>  <name>  (59) 
BCPAUKREVURYGD-MRVPVSSYSA-N

>  <fragmenstein_error>  (59) 
None

>  <score_inspiration>  (59) 
0.553341

>  <HIPPO Compound ID>  (59) 
27656

>  <scratch_subdir>  (59) 
/opt/xchem-fragalysis-2/maxwin/BulkDock/SCRATCH/304050/C27656-P51

>  <distance_score>  (59) 
0.811429

>  <Merging Algorithm>  (59) 
Knitwork Pure

>  <subsites>  (59) 
None

>  <original SMILES>  (59) 
C[C@@H](N)Cc1nc(-c2ccccn2)cs1

>  <SLURM_JOB_ID>  (59) 
304050

>  <HIPPO Pose ID>  (59) 
38980

>  <fragmenstein_mode>  (59) 
expansion

>  <ref_pdb>  (59) 
filtered_merges_wPDBs_BCPAUKREVURYGD-MRVPVSSYSA-N.pdb

$$$$
AYSOKQPXWXTIBI-MRVPVSSYSA-N
     RDKit          3D

 16 17  0  0  0  0  0  0  0  0999 V2000
    6.1135   -8.0274   23.6716 C   0  0  0  0  0  0  0  0  0  0  0  0
    4.8690   -8.5924   24.3464 C   0  0  1  0  0  0  0  0  0  0  0  0
    4.2824   -7.5539   25.1728 N   0  0  0  0  0  0  0  0  0  0  0  0
    3.8203   -9.0528   23.3211 C   0  0  0  0  0  0  0  0  0  0  0  0
    4.1288  -10.4386   22.9242 C   0  0  0  0  0  0  0  0  0  0  0  0
    4.8892  -10.8325   21.8502 C   0  0  0  0  0  0  0  0  0  0  0  0
    5.2633  -12.4750   22.0302 S   0  0  0  0  0  0  0  0  0  0  0  0
    4.3823  -12.5484   23.4988 C   0  0  0  0  0  0  0  0  0  0  0  0
    4.4794  -13.6473   24.2486 N   0  0  0  0  0  0  0  0  0  0  0  0
    3.7918  -14.0304   25.3862 C   0  0  0  0  0  0  0  0  0  0  0  0
    2.5331  -13.5466   25.7217 C   0  0  0  0  0  0  0  0  0  0  0  0
    1.8747  -14.0747   26.8293 C   0  0  0  0  0  0  0  0  0  0  0  0
    2.4987  -15.0575   27.5828 C   0  0  0  0  0  0  0  0  0  0  0  0
    3.7620  -15.4638   27.1970 C   0  0  0  0  0  0  0  0  0  0  0  0
    4.4210  -14.9729   26.1276 N   0  0  0  0  0  0  0  0  0  0  0  0
    3.7539  -11.4384   23.7939 N   0  0  0  0  0  0  0  0  0  0  0  0
  2  1  1  6
  2  3  1  0
  2  4  1  0
  4  5  1  0
  5  6  2  0
  6  7  1  0
  7  8  1  0
  8  9  1  0
  9 10  1  0
 10 11  2  0
 11 12  1  0
 12 13  2  0
 13 14  1  0
 14 15  2  0
  8 16  2  0
 16  5  1  0
 15 10  1  0
M  END
>  <inchikey>  (60) 
AYSOKQPXWXTIBI-MRVPVSSYSA-N

>  <energy_score>  (60) 
-79.358533

>  <MoCASSIn MergeScore>  (60) 
0.327762

>  <fragmenstein_outcome>  (60) 
acceptable

>  <tags>  (60) 
BulkDock Fragalysis export;Active site iter1 merge poses;Fragmenstein placed

>  <fragmenstein_runtime>  (60) 
4.865428

>  <original ID>  (60) 
AYSOKQPXWXTIBI-MRVPVSSYSA-N

>  <alias>  (60) 
None

>  <ref_mols>  (60) 
x0414a,x0634b

>  <exports>  (60) 
/opt/xchem-fragalysis-2/maxwin/BulkDock/OUTPUTS/CpKRS_iter1_knitwork_pure_split1000_batch010_304050.sdf;/opt/xchem-fragalysis-2/maxwin/BulkDock/OUTPUTS/CpKRS_iter1_knitwork_pure_fragalysis.sdf;/opt/xchem-fragalysis-2/maxwin/CpKRS_FFF/hippo/filtered_merges.sdf

>  <csv_name>  (60) 
CpKRS_iter1_knitwork_pure_split1000_batch010.csv

>  <SLURM_JOB_NAME>  (60) 
BulkDock.place:CpKRS:CpKRS_iter1_knitwork_pure_split1000_batch010

>  <name>  (60) 
AYSOKQPXWXTIBI-MRVPVSSYSA-N

>  <fragmenstein_error>  (60) 
None

>  <score_inspiration>  (60) 
0.468532

>  <HIPPO Compound ID>  (60) 
17755

>  <scratch_subdir>  (60) 
/opt/xchem-fragalysis-2/maxwin/BulkDock/SCRATCH/304050/C17755-P51

>  <distance_score>  (60) 
0.833585

>  <Merging Algorithm>  (60) 
Knitwork Pure

>  <subsites>  (60) 
None

>  <original SMILES>  (60) 
C[C@@H](N)Cc1csc(Nc2ccccn2)n1

>  <SLURM_JOB_ID>  (60) 
304050

>  <HIPPO Pose ID>  (60) 
39116

>  <fragmenstein_mode>  (60) 
expansion

>  <ref_pdb>  (60) 
filtered_merges_wPDBs_AYSOKQPXWXTIBI-MRVPVSSYSA-N.pdb

$$$$
JDVGBOTZSSFWQA-UHFFFAOYSA-N
     RDKit          3D

 15 16  0  0  0  0  0  0  0  0999 V2000
    6.0781   -8.8873   23.8577 C   0  0  0  0  0  0  0  0  0  0  0  0
    4.5630   -9.0517   23.8223 C   0  0  0  0  0  0  0  0  0  0  0  0
    3.9537   -8.1220   24.8579 C   0  0  0  0  0  0  0  0  0  0  0  0
    4.0943  -10.4056   24.1095 N   0  0  0  0  0  0  0  0  0  0  0  0
    4.4895  -11.5103   23.4398 C   0  0  0  0  0  0  0  0  0  0  0  0
    4.9901  -11.5275   22.1645 C   0  0  0  0  0  0  0  0  0  0  0  0
    5.2803  -12.8248   21.9242 N   0  0  0  0  0  0  0  0  0  0  0  0
    5.0510  -13.6388   22.9370 N   0  0  0  0  0  0  0  0  0  0  0  0
    4.4758  -12.8785   23.8753 C   0  0  0  0  0  0  0  0  0  0  0  0
    3.9268  -13.5132   25.0751 C   0  0  0  0  0  0  0  0  0  0  0  0
    2.5862  -13.3243   25.4024 C   0  0  0  0  0  0  0  0  0  0  0  0
    2.0453  -14.0576   26.4557 C   0  0  0  0  0  0  0  0  0  0  0  0
    2.8521  -14.9576   27.1411 C   0  0  0  0  0  0  0  0  0  0  0  0
    4.1784  -15.0723   26.7571 C   0  0  0  0  0  0  0  0  0  0  0  0
    4.7415  -14.3677   25.7535 N   0  0  0  0  0  0  0  0  0  0  0  0
  1  2  1  0
  2  3  1  0
  2  4  1  0
  4  5  1  0
  5  6  2  0
  6  7  1  0
  7  8  1  0
  8  9  2  0
  9 10  1  0
 10 11  2  0
 11 12  1  0
 12 13  2  0
 13 14  1  0
 14 15  2  0
  9  5  1  0
 15 10  1  0
M  END
>  <inchikey>  (61) 
JDVGBOTZSSFWQA-UHFFFAOYSA-N

>  <energy_score>  (61) 
-17.577338

>  <MoCASSIn MergeScore>  (61) 
0.381716

>  <fragmenstein_outcome>  (61) 
acceptable

>  <tags>  (61) 
BulkDock Fragalysis export;Active site iter1 merge poses;Fragmenstein placed

>  <fragmenstein_runtime>  (61) 
4.779284

>  <original ID>  (61) 
JDVGBOTZSSFWQA-UHFFFAOYSA-N

>  <alias>  (61) 
None

>  <ref_mols>  (61) 
x0414a,x0634b

>  <exports>  (61) 
/opt/xchem-fragalysis-2/maxwin/BulkDock/OUTPUTS/CpKRS_iter1_knitwork_pure_split1000_batch010_304050.sdf;/opt/xchem-fragalysis-2/maxwin/BulkDock/OUTPUTS/CpKRS_iter1_knitwork_pure_fragalysis.sdf;/opt/xchem-fragalysis-2/maxwin/CpKRS_FFF/hippo/filtered_merges.sdf

>  <csv_name>  (61) 
CpKRS_iter1_knitwork_pure_split1000_batch010.csv

>  <SLURM_JOB_NAME>  (61) 
BulkDock.place:CpKRS:CpKRS_iter1_knitwork_pure_split1000_batch010

>  <name>  (61) 
JDVGBOTZSSFWQA-UHFFFAOYSA-N

>  <fragmenstein_error>  (61) 
None

>  <score_inspiration>  (61) 
0.54352

>  <HIPPO Compound ID>  (61) 
27706

>  <scratch_subdir>  (61) 
/opt/xchem-fragalysis-2/maxwin/BulkDock/SCRATCH/304050/C27706-P51

>  <distance_score>  (61) 
0.726785

>  <Merging Algorithm>  (61) 
Knitwork Pure

>  <subsites>  (61) 
None

>  <original SMILES>  (61) 
CC(C)Nc1c[nH]nc1-c1ccccn1

>  <SLURM_JOB_ID>  (61) 
304050

>  <HIPPO Pose ID>  (61) 
39283

>  <fragmenstein_mode>  (61) 
expansion

>  <ref_pdb>  (61) 
filtered_merges_wPDBs_JDVGBOTZSSFWQA-UHFFFAOYSA-N.pdb

$$$$
DQNXLGWACCGJDE-JTQLQIEISA-N
     RDKit          3D

 13 13  0  0  0  0  0  0  0  0999 V2000
    4.1544   -8.5079   25.9553 C   0  0  0  0  0  0  0  0  0  0  0  0
    3.8745   -9.8979   25.5766 N   0  0  0  0  0  0  0  0  0  0  0  0
    4.5356  -10.7790   26.5321 C   0  0  0  0  0  0  0  0  0  0  0  0
    4.1223  -10.1498   24.1424 C   0  0  1  0  0  0  0  0  0  0  0  0
    5.5736   -9.8706   23.6806 C   0  0  0  0  0  0  0  0  0  0  0  0
    5.6636   -8.5166   23.1380 C   0  0  0  0  0  0  0  0  0  0  0  0
    5.6301   -7.4584   22.6696 N   0  0  0  0  0  0  0  0  0  0  0  0
    3.6113  -11.5067   23.5557 C   0  0  0  0  0  0  0  0  0  0  0  0
    4.5434  -12.7146   23.7517 C   0  0  0  0  0  0  0  0  0  0  0  0
    3.7759  -14.0098   23.9832 C   0  0  0  0  0  0  0  0  0  0  0  0
    2.9289  -13.8851   25.1595 N   0  0  0  0  0  0  0  0  0  0  0  0
    1.9901  -12.7629   25.1104 C   0  0  0  0  0  0  0  0  0  0  0  0
    2.1507  -11.8279   23.9136 C   0  0  0  0  0  0  0  0  0  0  0  0
  1  2  1  0
  2  3  1  0
  2  4  1  0
  4  5  1  1
  5  6  1  0
  6  7  3  0
  4  8  1  0
  8  9  1  0
  9 10  1  0
 10 11  1  0
 11 12  1  0
 12 13  1  0
 13  8  1  0
M  END
>  <inchikey>  (62) 
DQNXLGWACCGJDE-JTQLQIEISA-N

>  <energy_score>  (62) 
-35.750262

>  <MoCASSIn MergeScore>  (62) 
0.328502

>  <fragmenstein_outcome>  (62) 
acceptable

>  <tags>  (62) 
BulkDock Fragalysis export;Active site iter1 merge poses;Fragmenstein placed

>  <fragmenstein_runtime>  (62) 
10.768893

>  <original ID>  (62) 
DQNXLGWACCGJDE-JTQLQIEISA-N

>  <alias>  (62) 
None

>  <ref_mols>  (62) 
x0414a,x0489a

>  <exports>  (62) 
/opt/xchem-fragalysis-2/maxwin/BulkDock/OUTPUTS/CpKRS_iter1_knitwork_impure_split1000_batch051_304213.sdf;/opt/xchem-fragalysis-2/maxwin/BulkDock/OUTPUTS/CpKRS_iter1_knitwork_impure_fragalysis.sdf;/opt/xchem-fragalysis-2/maxwin/CpKRS_FFF/hippo/filtered_merges.sdf

>  <csv_name>  (62) 
CpKRS_iter1_knitwork_impure_split1000_batch051.csv

>  <SLURM_JOB_NAME>  (62) 
BulkDock.place:CpKRS:CpKRS_iter1_knitwork_impure_split1000_batch051

>  <name>  (62) 
DQNXLGWACCGJDE-JTQLQIEISA-N

>  <fragmenstein_error>  (62) 
None

>  <score_inspiration>  (62) 
0.514321

>  <HIPPO Compound ID>  (62) 
25973

>  <scratch_subdir>  (62) 
/opt/xchem-fragalysis-2/maxwin/BulkDock/SCRATCH/304213/C25973-P6

>  <distance_score>  (62) 
0.971556

>  <Merging Algorithm>  (62) 
Knitwork Impure

>  <subsites>  (62) 
None

>  <original SMILES>  (62) 
CN(C)[C@@H](CC#N)C1CCNCC1

>  <SLURM_JOB_ID>  (62) 
304213

>  <HIPPO Pose ID>  (62) 
40377

>  <fragmenstein_mode>  (62) 
expansion

>  <ref_pdb>  (62) 
filtered_merges_wPDBs_DQNXLGWACCGJDE-JTQLQIEISA-N.pdb

$$$$
CDKGIQFFHOZRJD-GFCCVEGCSA-N
     RDKit          3D

 15 15  0  0  0  0  0  0  0  0999 V2000
    5.8029   -5.7422   27.1395 C   0  0  0  0  0  0  0  0  0  0  0  0
    6.0671   -6.2453   25.8016 C   0  0  0  0  0  0  0  0  0  0  0  0
    6.1168   -6.8715   24.7824 C   0  0  0  0  0  0  0  0  0  0  0  0
    5.8797   -7.9084   23.7850 C   0  0  0  0  0  0  0  0  0  0  0  0
    4.8599   -8.9132   24.3857 C   0  0  2  0  0  0  0  0  0  0  0  0
    5.4716   -9.6616   25.6133 C   0  0  0  0  0  0  0  0  0  0  0  0
    4.6452  -10.8194   26.0854 C   0  0  0  0  0  0  0  0  0  0  0  0
    3.3219  -10.8192   26.4681 C   0  0  0  0  0  0  0  0  0  0  0  0
    2.8431  -12.1178   26.7805 C   0  0  0  0  0  0  0  0  0  0  0  0
    3.8161  -13.0725   26.5996 C   0  0  0  0  0  0  0  0  0  0  0  0
    5.3223  -12.3826   26.1893 S   0  0  0  0  0  0  0  0  0  0  0  0
    4.2677   -9.7737   23.3418 N   0  0  0  0  0  0  0  0  0  0  0  0
    5.2826  -10.6296   22.7228 C   0  0  0  0  0  0  0  0  0  0  0  0
    4.6715  -11.8193   22.0028 C   0  0  0  0  0  0  0  0  0  0  0  0
    4.1002  -12.9103   22.8877 C   0  0  0  0  0  0  0  0  0  0  0  0
  1  2  1  0
  2  3  3  0
  3  4  1  0
  5  4  1  6
  5  6  1  0
  6  7  1  0
  7  8  2  0
  8  9  1  0
  9 10  2  0
 10 11  1  0
  5 12  1  0
 12 13  1  0
 13 14  1  0
 14 15  1  0
 11  7  1  0
M  END
>  <inchikey>  (63) 
CDKGIQFFHOZRJD-GFCCVEGCSA-N

>  <energy_score>  (63) 
-21.7892

>  <MoCASSIn MergeScore>  (63) 
0.241492

>  <fragmenstein_outcome>  (63) 
acceptable

>  <tags>  (63) 
BulkDock Fragalysis export;Active site iter1 merge poses;Fragmenstein placed

>  <fragmenstein_runtime>  (63) 
9.013496

>  <original ID>  (63) 
CDKGIQFFHOZRJD-GFCCVEGCSA-N

>  <alias>  (63) 
None

>  <ref_mols>  (63) 
x0414a,x0787a

>  <exports>  (63) 
/opt/xchem-fragalysis-2/maxwin/BulkDock/OUTPUTS/CpKRS_iter1_knitwork_impure_split1000_batch117_304279.sdf;/opt/xchem-fragalysis-2/maxwin/BulkDock/OUTPUTS/CpKRS_iter1_knitwork_impure_fragalysis.sdf;/opt/xchem-fragalysis-2/maxwin/CpKRS_FFF/hippo/filtered_merges.sdf

>  <csv_name>  (63) 
CpKRS_iter1_knitwork_impure_split1000_batch117.csv

>  <SLURM_JOB_NAME>  (63) 
BulkDock.place:CpKRS:CpKRS_iter1_knitwork_impure_split1000_batch117

>  <name>  (63) 
CDKGIQFFHOZRJD-GFCCVEGCSA-N

>  <fragmenstein_error>  (63) 
None

>  <score_inspiration>  (63) 
0.389107

>  <HIPPO Compound ID>  (63) 
25550

>  <scratch_subdir>  (63) 
/opt/xchem-fragalysis-2/maxwin/BulkDock/SCRATCH/304279/C25550-P6

>  <distance_score>  (63) 
0.885477

>  <Merging Algorithm>  (63) 
Knitwork Impure

>  <subsites>  (63) 
None

>  <original SMILES>  (63) 
CC#CC[C@H](Cc1cccs1)NCCC

>  <SLURM_JOB_ID>  (63) 
304279

>  <HIPPO Pose ID>  (63) 
47133

>  <fragmenstein_mode>  (63) 
expansion

>  <ref_pdb>  (63) 
filtered_merges_wPDBs_CDKGIQFFHOZRJD-GFCCVEGCSA-N.pdb

$$$$
SCMJZBZLSWJQJO-SSDOTTSWSA-N
     RDKit          3D

 10 10  0  0  0  0  0  0  0  0999 V2000
    3.4500  -11.6809   26.8120 C   0  0  0  0  0  0  0  0  0  0  0  0
    4.0029  -12.2232   25.4885 C   0  0  1  0  0  0  0  0  0  0  0  0
    3.5934  -13.6305   25.3728 N   0  0  0  0  0  0  0  0  0  0  0  0
    3.4908  -11.4261   24.2704 C   0  0  0  0  0  0  0  0  0  0  0  0
    4.3430  -10.2633   23.8154 C   0  0  0  0  0  0  0  0  0  0  0  0
    4.9014  -10.2695   22.5315 C   0  0  0  0  0  0  0  0  0  0  0  0
    5.5905   -9.1498   22.0948 C   0  0  0  0  0  0  0  0  0  0  0  0
    5.7712   -8.0422   22.8433 N   0  0  0  0  0  0  0  0  0  0  0  0
    5.2682   -8.0712   24.0942 C   0  0  0  0  0  0  0  0  0  0  0  0
    4.5380   -9.1316   24.6095 C   0  0  0  0  0  0  0  0  0  0  0  0
  2  1  1  1
  2  3  1  0
  2  4  1  0
  4  5  1  0
  5  6  2  0
  6  7  1  0
  7  8  2  0
  8  9  1  0
  9 10  2  0
 10  5  1  0
M  END
>  <inchikey>  (64) 
SCMJZBZLSWJQJO-SSDOTTSWSA-N

>  <energy_score>  (64) 
-13.52753

>  <MoCASSIn MergeScore>  (64) 
0.38535

>  <fragmenstein_outcome>  (64) 
acceptable

>  <tags>  (64) 
BulkDock Fragalysis export;Active site iter1 merge poses;Fragmenstein placed

>  <fragmenstein_runtime>  (64) 
5.347464

>  <original ID>  (64) 
SCMJZBZLSWJQJO-SSDOTTSWSA-N

>  <alias>  (64) 
None

>  <ref_mols>  (64) 
x0414a,x0759b,x0759a

>  <exports>  (64) 
/opt/xchem-fragalysis-2/maxwin/BulkDock/OUTPUTS/CpKRS_iter1_knitwork_impure_split1000_batch012_304174.sdf;/opt/xchem-fragalysis-2/maxwin/BulkDock/OUTPUTS/CpKRS_iter1_knitwork_impure_fragalysis.sdf;/opt/xchem-fragalysis-2/maxwin/CpKRS_FFF/hippo/filtered_merges.sdf

>  <csv_name>  (64) 
CpKRS_iter1_knitwork_impure_split1000_batch012.csv

>  <SLURM_JOB_NAME>  (64) 
BulkDock.place:CpKRS:CpKRS_iter1_knitwork_impure_split1000_batch012

>  <name>  (64) 
SCMJZBZLSWJQJO-SSDOTTSWSA-N

>  <fragmenstein_error>  (64) 
None

>  <score_inspiration>  (64) 
0.641445

>  <HIPPO Compound ID>  (64) 
3554

>  <scratch_subdir>  (64) 
/opt/xchem-fragalysis-2/maxwin/BulkDock/SCRATCH/304174/C3554-P6

>  <distance_score>  (64) 
1.215769

>  <Merging Algorithm>  (64) 
Knitwork Impure

>  <subsites>  (64) 
None

>  <original SMILES>  (64) 
C[C@@H](N)Cc1ccncc1

>  <SLURM_JOB_ID>  (64) 
304174

>  <HIPPO Pose ID>  (64) 
48474

>  <fragmenstein_mode>  (64) 
expansion

>  <ref_pdb>  (64) 
filtered_merges_wPDBs_SCMJZBZLSWJQJO-SSDOTTSWSA-N.pdb

$$$$
NFSHFUSCYWFUSW-LURJTMIESA-N
     RDKit          3D

 12 13  0  0  0  0  0  0  0  0999 V2000
    2.3242  -12.2665   25.6307 C   0  0  0  0  0  0  0  0  0  0  0  0
    3.0791  -12.7915   24.4064 C   0  0  2  0  0  0  0  0  0  0  0  0
    2.8131  -14.2309   24.3029 N   0  0  0  0  0  0  0  0  0  0  0  0
    4.5887  -12.5396   24.4865 C   0  0  0  0  0  0  0  0  0  0  0  0
    4.9354  -11.1096   24.5176 C   0  0  0  0  0  0  0  0  0  0  0  0
    5.1054  -10.5585   25.7661 O   0  0  0  0  0  0  0  0  0  0  0  0
    5.4473   -9.2100   25.6432 N   0  0  0  0  0  0  0  0  0  0  0  0
    5.4944   -9.0225   24.3343 C   0  0  0  0  0  0  0  0  0  0  0  0
    5.1749  -10.1499   23.5846 C   0  0  0  0  0  0  0  0  0  0  0  0
    5.2419   -9.9030   22.1409 C   0  0  0  0  0  0  0  0  0  0  0  0
    5.3266   -8.3429   22.1017 C   0  0  0  0  0  0  0  0  0  0  0  0
    5.8501   -7.8696   23.5034 C   0  0  0  0  0  0  0  0  0  0  0  0
  2  1  1  1
  2  3  1  0
  2  4  1  0
  4  5  1  0
  5  6  1  0
  6  7  1  0
  7  8  2  0
  8  9  1  0
  9 10  1  0
 10 11  1  0
 11 12  1  0
  9  5  2  0
 12  8  1  0
M  END
>  <inchikey>  (65) 
NFSHFUSCYWFUSW-LURJTMIESA-N

>  <energy_score>  (65) 
-32.353643

>  <MoCASSIn MergeScore>  (65) 
0.37637

>  <fragmenstein_outcome>  (65) 
acceptable

>  <tags>  (65) 
BulkDock Fragalysis export;Active site iter1 merge poses;Fragmenstein placed

>  <fragmenstein_runtime>  (65) 
3.985672

>  <original ID>  (65) 
NFSHFUSCYWFUSW-LURJTMIESA-N

>  <alias>  (65) 
None

>  <ref_mols>  (65) 
x0414a,x0759b,x0759a

>  <exports>  (65) 
/opt/xchem-fragalysis-2/maxwin/BulkDock/OUTPUTS/CpKRS_iter1_knitwork_impure_split1000_batch012_304174.sdf;/opt/xchem-fragalysis-2/maxwin/BulkDock/OUTPUTS/CpKRS_iter1_knitwork_impure_fragalysis.sdf;/opt/xchem-fragalysis-2/maxwin/CpKRS_FFF/hippo/filtered_merges.sdf

>  <csv_name>  (65) 
CpKRS_iter1_knitwork_impure_split1000_batch012.csv

>  <SLURM_JOB_NAME>  (65) 
BulkDock.place:CpKRS:CpKRS_iter1_knitwork_impure_split1000_batch012

>  <name>  (65) 
NFSHFUSCYWFUSW-LURJTMIESA-N

>  <fragmenstein_error>  (65) 
None

>  <score_inspiration>  (65) 
0.572213

>  <HIPPO Compound ID>  (65) 
6310

>  <scratch_subdir>  (65) 
/opt/xchem-fragalysis-2/maxwin/BulkDock/SCRATCH/304174/C6310-P6

>  <distance_score>  (65) 
1.523053

>  <Merging Algorithm>  (65) 
Knitwork Impure

>  <subsites>  (65) 
None

>  <original SMILES>  (65) 
C[C@H](N)Cc1onc2c1CCC2

>  <SLURM_JOB_ID>  (65) 
304174

>  <HIPPO Pose ID>  (65) 
48850

>  <fragmenstein_mode>  (65) 
expansion

>  <ref_pdb>  (65) 
filtered_merges_wPDBs_NFSHFUSCYWFUSW-LURJTMIESA-N.pdb

$$$$
PUEWSNLDTZQXLN-SSDOTTSWSA-N
     RDKit          3D

 10 10  0  0  0  0  0  0  0  0999 V2000
    3.5780  -11.6259   26.8116 C   0  0  0  0  0  0  0  0  0  0  0  0
    4.0339  -12.3390   25.5329 C   0  0  1  0  0  0  0  0  0  0  0  0
    3.6448  -13.7517   25.6269 N   0  0  0  0  0  0  0  0  0  0  0  0
    3.4104  -11.7206   24.2712 C   0  0  0  0  0  0  0  0  0  0  0  0
    4.1558  -10.5566   23.6806 C   0  0  0  0  0  0  0  0  0  0  0  0
    4.9028  -10.7108   22.5082 C   0  0  0  0  0  0  0  0  0  0  0  0
    5.4927   -9.6026   21.9151 C   0  0  0  0  0  0  0  0  0  0  0  0
    5.3215   -8.3735   22.5171 C   0  0  0  0  0  0  0  0  0  0  0  0
    4.6231   -8.1878   23.6562 N   0  0  0  0  0  0  0  0  0  0  0  0
    4.0691   -9.2815   24.2235 C   0  0  0  0  0  0  0  0  0  0  0  0
  2  1  1  1
  2  3  1  0
  2  4  1  0
  4  5  1  0
  5  6  2  0
  6  7  1  0
  7  8  2  0
  8  9  1  0
  9 10  2  0
 10  5  1  0
M  END
>  <inchikey>  (66) 
PUEWSNLDTZQXLN-SSDOTTSWSA-N

>  <energy_score>  (66) 
-12.979111

>  <MoCASSIn MergeScore>  (66) 
0.335748

>  <fragmenstein_outcome>  (66) 
acceptable

>  <tags>  (66) 
BulkDock Fragalysis export;Active site iter1 merge poses;Fragmenstein placed

>  <fragmenstein_runtime>  (66) 
3.489793

>  <original ID>  (66) 
PUEWSNLDTZQXLN-SSDOTTSWSA-N

>  <alias>  (66) 
None

>  <ref_mols>  (66) 
x0414a,x0759b,x0759a

>  <exports>  (66) 
/opt/xchem-fragalysis-2/maxwin/BulkDock/OUTPUTS/CpKRS_iter1_knitwork_impure_split1000_batch012_304174.sdf;/opt/xchem-fragalysis-2/maxwin/BulkDock/OUTPUTS/CpKRS_iter1_knitwork_impure_fragalysis.sdf;/opt/xchem-fragalysis-2/maxwin/CpKRS_FFF/hippo/filtered_merges.sdf

>  <csv_name>  (66) 
CpKRS_iter1_knitwork_impure_split1000_batch012.csv

>  <SLURM_JOB_NAME>  (66) 
BulkDock.place:CpKRS:CpKRS_iter1_knitwork_impure_split1000_batch012

>  <name>  (66) 
PUEWSNLDTZQXLN-SSDOTTSWSA-N

>  <fragmenstein_error>  (66) 
None

>  <score_inspiration>  (66) 
0.603967

>  <HIPPO Compound ID>  (66) 
3556

>  <scratch_subdir>  (66) 
/opt/xchem-fragalysis-2/maxwin/BulkDock/SCRATCH/304174/C3556-P6

>  <distance_score>  (66) 
1.430278

>  <Merging Algorithm>  (66) 
Knitwork Impure

>  <subsites>  (66) 
None

>  <original SMILES>  (66) 
C[C@@H](N)Cc1cccnc1

>  <SLURM_JOB_ID>  (66) 
304174

>  <HIPPO Pose ID>  (66) 
49184

>  <fragmenstein_mode>  (66) 
expansion

>  <ref_pdb>  (66) 
filtered_merges_wPDBs_PUEWSNLDTZQXLN-SSDOTTSWSA-N.pdb

$$$$
LVJKTRYYCJTNHL-UHFFFAOYSA-N
     RDKit          3D

 17 17  0  0  0  0  0  0  0  0999 V2000
    2.8372  -12.9104   22.9626 C   0  0  0  0  0  0  0  0  0  0  0  0
    3.7367  -12.1747   23.8598 N   0  0  0  0  0  0  0  0  0  0  0  0
    5.0168  -11.9225   23.1910 C   0  0  0  0  0  0  0  0  0  0  0  0
    5.0113  -10.9225   22.0426 C   0  0  0  0  0  0  0  0  0  0  0  0
    4.5391   -9.5080   22.3292 C   0  0  0  0  0  0  0  0  0  0  0  0
    5.4303   -8.6893   23.2658 C   0  0  0  0  0  0  0  0  0  0  0  0
    5.1145   -8.6791   24.7861 C   0  0  0  0  0  0  0  0  0  0  0  0
    3.6354   -8.8398   25.1399 C   0  0  0  0  0  0  0  0  0  0  0  0
    5.6245   -7.3273   25.3358 C   0  0  0  0  0  0  0  0  0  0  0  0
    5.8300   -9.7350   25.5298 C   0  0  0  0  0  0  0  0  0  0  0  0
    6.3593  -10.5328   26.1857 N   0  0  0  0  0  0  0  0  0  0  0  0
    4.0128  -12.9726   25.0914 C   0  0  0  0  0  0  0  0  0  0  0  0
    2.7827  -13.5451   25.7360 C   0  0  0  0  0  0  0  0  0  0  0  0
    2.5148  -14.9181   25.9560 C   0  0  0  0  0  0  0  0  0  0  0  0
    1.2636  -14.9510   26.5186 C   0  0  0  0  0  0  0  0  0  0  0  0
    0.8744  -13.6526   26.6380 N   0  0  0  0  0  0  0  0  0  0  0  0
    1.7661  -12.7768   26.1577 N   0  0  0  0  0  0  0  0  0  0  0  0
  1  2  1  0
  2  3  1  0
  3  4  1  0
  4  5  1  0
  5  6  1  0
  6  7  1  0
  7  8  1  0
  7  9  1  0
  7 10  1  0
 10 11  3  0
  2 12  1  0
 12 13  1  0
 13 14  1  0
 14 15  2  0
 15 16  1  0
 16 17  1  0
 17 13  2  0
M  END
>  <inchikey>  (67) 
LVJKTRYYCJTNHL-UHFFFAOYSA-N

>  <energy_score>  (67) 
-38.877012

>  <MoCASSIn MergeScore>  (67) 
0.30742

>  <fragmenstein_outcome>  (67) 
acceptable

>  <tags>  (67) 
BulkDock Fragalysis export;Active site iter1 merge poses;Fragmenstein placed

>  <fragmenstein_runtime>  (67) 
7.323146

>  <original ID>  (67) 
LVJKTRYYCJTNHL-UHFFFAOYSA-N

>  <alias>  (67) 
None

>  <ref_mols>  (67) 
x0414a,x0421b

>  <exports>  (67) 
/opt/xchem-fragalysis-2/maxwin/BulkDock/OUTPUTS/CpKRS_iter1_knitwork_impure_split1000_batch014_304176.sdf;/opt/xchem-fragalysis-2/maxwin/BulkDock/OUTPUTS/CpKRS_iter1_knitwork_impure_fragalysis.sdf;/opt/xchem-fragalysis-2/maxwin/CpKRS_FFF/hippo/filtered_merges.sdf

>  <csv_name>  (67) 
CpKRS_iter1_knitwork_impure_split1000_batch014.csv

>  <SLURM_JOB_NAME>  (67) 
BulkDock.place:CpKRS:CpKRS_iter1_knitwork_impure_split1000_batch014

>  <name>  (67) 
LVJKTRYYCJTNHL-UHFFFAOYSA-N

>  <fragmenstein_error>  (67) 
None

>  <score_inspiration>  (67) 
0.429647

>  <HIPPO Compound ID>  (67) 
9717

>  <scratch_subdir>  (67) 
/opt/xchem-fragalysis-2/maxwin/BulkDock/SCRATCH/304176/C9717-P6

>  <distance_score>  (67) 
0.999157

>  <Merging Algorithm>  (67) 
Knitwork Impure

>  <subsites>  (67) 
None

>  <original SMILES>  (67) 
CN(CCCCC(C)(C)C#N)Cc1cc[nH]n1

>  <SLURM_JOB_ID>  (67) 
304176

>  <HIPPO Pose ID>  (67) 
49186

>  <fragmenstein_mode>  (67) 
expansion

>  <ref_pdb>  (67) 
filtered_merges_wPDBs_LVJKTRYYCJTNHL-UHFFFAOYSA-N.pdb

$$$$
KOBNRFSSLYKNOE-UHFFFAOYSA-N
     RDKit          3D

 13 13  0  0  0  0  0  0  0  0999 V2000
    2.1466   -9.3866   24.3976 C   0  0  0  0  0  0  0  0  0  0  0  0
    2.4097  -10.8835   24.4427 C   0  0  0  0  0  0  0  0  0  0  0  0
    3.8166  -11.3359   24.5651 N   0  0  0  0  0  0  0  0  0  0  0  0
    3.9168  -12.7927   24.2503 C   0  0  0  0  0  0  0  0  0  0  0  0
    2.9801  -13.6907   25.0170 C   0  0  0  0  0  0  0  0  0  0  0  0
    3.3297  -14.7687   25.8633 C   0  0  0  0  0  0  0  0  0  0  0  0
    2.1371  -15.3659   26.1926 C   0  0  0  0  0  0  0  0  0  0  0  0
    1.1683  -14.6020   25.6278 N   0  0  0  0  0  0  0  0  0  0  0  0
    1.6483  -13.6401   24.8347 N   0  0  0  0  0  0  0  0  0  0  0  0
    4.7416  -10.6089   23.6601 C   0  0  0  0  0  0  0  0  0  0  0  0
    5.3615   -9.3289   24.2342 C   0  0  0  0  0  0  0  0  0  0  0  0
    6.0130   -8.6750   23.2318 F   0  0  0  0  0  0  0  0  0  0  0  0
    6.2893   -9.6395   25.1742 F   0  0  0  0  0  0  0  0  0  0  0  0
  1  2  1  0
  2  3  1  0
  3  4  1  0
  4  5  1  0
  5  6  1  0
  6  7  2  0
  7  8  1  0
  8  9  1  0
  3 10  1  0
 10 11  1  0
 11 12  1  0
 11 13  1  0
  9  5  2  0
M  END
>  <inchikey>  (68) 
KOBNRFSSLYKNOE-UHFFFAOYSA-N

>  <energy_score>  (68) 
-13.772286

>  <MoCASSIn MergeScore>  (68) 
0.3213

>  <fragmenstein_outcome>  (68) 
acceptable

>  <tags>  (68) 
BulkDock Fragalysis export;Active site iter1 merge poses;Fragmenstein placed

>  <fragmenstein_runtime>  (68) 
5.957676

>  <original ID>  (68) 
KOBNRFSSLYKNOE-UHFFFAOYSA-N

>  <alias>  (68) 
None

>  <ref_mols>  (68) 
x0414a,x0421b

>  <exports>  (68) 
/opt/xchem-fragalysis-2/maxwin/BulkDock/OUTPUTS/CpKRS_iter1_knitwork_impure_split1000_batch014_304176.sdf;/opt/xchem-fragalysis-2/maxwin/BulkDock/OUTPUTS/CpKRS_iter1_knitwork_impure_fragalysis.sdf;/opt/xchem-fragalysis-2/maxwin/CpKRS_FFF/hippo/filtered_merges.sdf

>  <csv_name>  (68) 
CpKRS_iter1_knitwork_impure_split1000_batch014.csv

>  <SLURM_JOB_NAME>  (68) 
BulkDock.place:CpKRS:CpKRS_iter1_knitwork_impure_split1000_batch014

>  <name>  (68) 
KOBNRFSSLYKNOE-UHFFFAOYSA-N

>  <fragmenstein_error>  (68) 
None

>  <score_inspiration>  (68) 
0.497401

>  <HIPPO Compound ID>  (68) 
9721

>  <scratch_subdir>  (68) 
/opt/xchem-fragalysis-2/maxwin/BulkDock/SCRATCH/304176/C9721-P6

>  <distance_score>  (68) 
0.811304

>  <Merging Algorithm>  (68) 
Knitwork Impure

>  <subsites>  (68) 
None

>  <original SMILES>  (68) 
CCN(Cc1cc[nH]n1)CC(F)F

>  <SLURM_JOB_ID>  (68) 
304176

>  <HIPPO Pose ID>  (68) 
49333

>  <fragmenstein_mode>  (68) 
expansion

>  <ref_pdb>  (68) 
filtered_merges_wPDBs_KOBNRFSSLYKNOE-UHFFFAOYSA-N.pdb

$$$$
KOBNRFSSLYKNOE-UHFFFAOYSA-N
     RDKit          3D

 13 13  0  0  0  0  0  0  0  0999 V2000
    2.4130   -9.6911   22.9702 C   0  0  0  0  0  0  0  0  0  0  0  0
    2.7885  -11.1605   23.1322 C   0  0  0  0  0  0  0  0  0  0  0  0
    3.8510  -11.4096   24.1335 N   0  0  0  0  0  0  0  0  0  0  0  0
    4.0156  -12.8836   24.3154 C   0  0  0  0  0  0  0  0  0  0  0  0
    3.0400  -13.4535   25.3194 C   0  0  0  0  0  0  0  0  0  0  0  0
    3.3470  -14.2927   26.4231 C   0  0  0  0  0  0  0  0  0  0  0  0
    2.1531  -14.4884   27.0736 C   0  0  0  0  0  0  0  0  0  0  0  0
    1.2305  -13.7729   26.3719 N   0  0  0  0  0  0  0  0  0  0  0  0
    1.7156  -13.2507   25.2358 N   0  0  0  0  0  0  0  0  0  0  0  0
    5.1342  -10.7796   23.7464 C   0  0  0  0  0  0  0  0  0  0  0  0
    5.2722   -9.3170   24.1997 C   0  0  0  0  0  0  0  0  0  0  0  0
    5.5117   -8.5145   23.1271 F   0  0  0  0  0  0  0  0  0  0  0  0
    6.3404   -9.1824   25.0290 F   0  0  0  0  0  0  0  0  0  0  0  0
  1  2  1  0
  2  3  1  0
  3  4  1  0
  4  5  1  0
  5  6  1  0
  6  7  2  0
  7  8  1  0
  8  9  1  0
  3 10  1  0
 10 11  1  0
 11 12  1  0
 11 13  1  0
  9  5  2  0
M  END
>  <inchikey>  (69) 
KOBNRFSSLYKNOE-UHFFFAOYSA-N

>  <energy_score>  (69) 
-13.074691

>  <MoCASSIn MergeScore>  (69) 
0.407781

>  <fragmenstein_outcome>  (69) 
acceptable

>  <tags>  (69) 
BulkDock Fragalysis export;Active site iter1 merge poses;Fragmenstein placed

>  <fragmenstein_runtime>  (69) 
6.025873

>  <original ID>  (69) 
KOBNRFSSLYKNOE-UHFFFAOYSA-N

>  <alias>  (69) 
None

>  <ref_mols>  (69) 
x0414a,x0421b

>  <exports>  (69) 
/opt/xchem-fragalysis-2/maxwin/BulkDock/OUTPUTS/CpKRS_iter1_knitwork_impure_split1000_batch014_304176.sdf;/opt/xchem-fragalysis-2/maxwin/BulkDock/OUTPUTS/CpKRS_iter1_knitwork_impure_fragalysis.sdf;/opt/xchem-fragalysis-2/maxwin/CpKRS_FFF/hippo/filtered_merges.sdf

>  <csv_name>  (69) 
CpKRS_iter1_knitwork_impure_split1000_batch014.csv

>  <SLURM_JOB_NAME>  (69) 
BulkDock.place:CpKRS:CpKRS_iter1_knitwork_impure_split1000_batch014

>  <name>  (69) 
KOBNRFSSLYKNOE-UHFFFAOYSA-N

>  <fragmenstein_error>  (69) 
None

>  <score_inspiration>  (69) 
0.593602

>  <HIPPO Compound ID>  (69) 
9721

>  <scratch_subdir>  (69) 
/opt/xchem-fragalysis-2/maxwin/BulkDock/SCRATCH/304176/C9721-P12

>  <distance_score>  (69) 
0.625626

>  <Merging Algorithm>  (69) 
Knitwork Impure

>  <subsites>  (69) 
None

>  <original SMILES>  (69) 
CCN(Cc1cc[nH]n1)CC(F)F

>  <SLURM_JOB_ID>  (69) 
304176

>  <HIPPO Pose ID>  (69) 
49350

>  <fragmenstein_mode>  (69) 
expansion

>  <ref_pdb>  (69) 
filtered_merges_wPDBs_KOBNRFSSLYKNOE-UHFFFAOYSA-N.pdb

$$$$
OYBYIEULRJRGNA-ZJUUUORDSA-N
     RDKit          3D

 14 14  0  0  0  0  0  0  0  0999 V2000
    5.0052  -13.8265   24.1972 C   0  0  0  0  0  0  0  0  0  0  0  0
    3.6683  -13.1096   24.4131 C   0  0  2  0  0  0  0  0  0  0  0  0
    3.7464  -11.6585   24.6342 N   0  0  0  0  0  0  0  0  0  0  0  0
    4.8203  -10.9752   23.9299 C   0  0  0  0  0  0  0  0  0  0  0  0
    4.6554   -9.4370   24.0536 C   0  0  1  0  0  0  0  0  0  0  0  0
    5.5443   -8.8128   25.1358 C   0  0  0  0  0  0  0  0  0  0  0  0
    4.9314   -8.7336   22.7206 C   0  0  0  0  0  0  0  0  0  0  0  0
    3.9176   -9.1205   21.6771 C   0  0  0  0  0  0  0  0  0  0  0  0
    6.2901   -9.0411   22.1645 C   0  0  0  0  0  0  0  0  0  0  0  0
    2.9079  -13.7144   25.5542 C   0  0  0  0  0  0  0  0  0  0  0  0
    3.1652  -14.7786   26.3963 C   0  0  0  0  0  0  0  0  0  0  0  0
    2.0511  -14.8519   27.2457 C   0  0  0  0  0  0  0  0  0  0  0  0
    1.1334  -13.9297   26.9584 N   0  0  0  0  0  0  0  0  0  0  0  0
    1.7120  -13.1973   25.9910 N   0  0  0  0  0  0  0  0  0  0  0  0
  2  1  1  1
  2  3  1  0
  3  4  1  0
  4  5  1  0
  5  6  1  1
  5  7  1  0
  7  8  1  0
  7  9  1  0
  2 10  1  0
 10 11  2  0
 11 12  1  0
 12 13  2  0
 13 14  1  0
 14 10  1  0
M  END
>  <inchikey>  (70) 
OYBYIEULRJRGNA-ZJUUUORDSA-N

>  <energy_score>  (70) 
-29.681261

>  <MoCASSIn MergeScore>  (70) 
0.335983

>  <fragmenstein_outcome>  (70) 
acceptable

>  <tags>  (70) 
BulkDock Fragalysis export;Active site iter1 merge poses;Fragmenstein placed

>  <fragmenstein_runtime>  (70) 
8.044095

>  <original ID>  (70) 
OYBYIEULRJRGNA-ZJUUUORDSA-N

>  <alias>  (70) 
None

>  <ref_mols>  (70) 
x0414a,x0421b

>  <exports>  (70) 
/opt/xchem-fragalysis-2/maxwin/BulkDock/OUTPUTS/CpKRS_iter1_knitwork_impure_split1000_batch014_304176.sdf;/opt/xchem-fragalysis-2/maxwin/BulkDock/OUTPUTS/CpKRS_iter1_knitwork_impure_fragalysis.sdf;/opt/xchem-fragalysis-2/maxwin/CpKRS_FFF/hippo/filtered_merges.sdf

>  <csv_name>  (70) 
CpKRS_iter1_knitwork_impure_split1000_batch014.csv

>  <SLURM_JOB_NAME>  (70) 
BulkDock.place:CpKRS:CpKRS_iter1_knitwork_impure_split1000_batch014

>  <name>  (70) 
OYBYIEULRJRGNA-ZJUUUORDSA-N

>  <fragmenstein_error>  (70) 
None

>  <score_inspiration>  (70) 
0.497428

>  <HIPPO Compound ID>  (70) 
9724

>  <scratch_subdir>  (70) 
/opt/xchem-fragalysis-2/maxwin/BulkDock/SCRATCH/304176/C9724-P12

>  <distance_score>  (70) 
0.940065

>  <Merging Algorithm>  (70) 
Knitwork Impure

>  <subsites>  (70) 
None

>  <original SMILES>  (70) 
CC(C)[C@H](C)CN[C@@H](C)c1ccn[nH]1

>  <SLURM_JOB_ID>  (70) 
304176

>  <HIPPO Pose ID>  (70) 
49476

>  <fragmenstein_mode>  (70) 
expansion

>  <ref_pdb>  (70) 
filtered_merges_wPDBs_OYBYIEULRJRGNA-ZJUUUORDSA-N.pdb

$$$$
FICZDWVNXDDACH-YFKPBYRVSA-N
     RDKit          3D

  9  9  0  0  0  0  0  0  0  0999 V2000
    4.6159  -10.5158   23.7244 C   0  0  0  0  0  0  0  0  0  0  0  0
    4.0665  -11.3650   24.8724 C   0  0  2  0  0  0  0  0  0  0  0  0
    4.8762  -11.1419   26.0762 N   0  0  0  0  0  0  0  0  0  0  0  0
    4.0403  -12.8529   24.4656 C   0  0  0  0  0  0  0  0  0  0  0  0
    3.0701  -13.7103   25.2212 C   0  0  0  0  0  0  0  0  0  0  0  0
    3.2525  -14.9661   25.7656 C   0  0  0  0  0  0  0  0  0  0  0  0
    2.0151  -15.4797   26.2493 C   0  0  0  0  0  0  0  0  0  0  0  0
    0.9495  -14.6912   26.1490 N   0  0  0  0  0  0  0  0  0  0  0  0
    1.4244  -13.2781   25.4279 S   0  0  0  0  0  0  0  0  0  0  0  0
  2  1  1  6
  2  3  1  0
  2  4  1  0
  4  5  1  0
  5  6  2  0
  6  7  1  0
  7  8  2  0
  8  9  1  0
  9  5  1  0
M  END
>  <inchikey>  (71) 
FICZDWVNXDDACH-YFKPBYRVSA-N

>  <energy_score>  (71) 
-26.755881

>  <MoCASSIn MergeScore>  (71) 
0.504241

>  <fragmenstein_outcome>  (71) 
acceptable

>  <tags>  (71) 
BulkDock Fragalysis export;Active site iter1 merge poses;Fragmenstein placed

>  <fragmenstein_runtime>  (71) 
3.379349

>  <original ID>  (71) 
FICZDWVNXDDACH-YFKPBYRVSA-N

>  <alias>  (71) 
None

>  <ref_mols>  (71) 
x0414a,x0421a,x0421b,x0421c

>  <exports>  (71) 
/opt/xchem-fragalysis-2/maxwin/BulkDock/OUTPUTS/CpKRS_iter1_knitwork_impure_split1000_batch007_304169.sdf;/opt/xchem-fragalysis-2/maxwin/BulkDock/OUTPUTS/CpKRS_iter1_knitwork_impure_fragalysis.sdf;/opt/xchem-fragalysis-2/maxwin/CpKRS_FFF/hippo/filtered_merges.sdf

>  <csv_name>  (71) 
CpKRS_iter1_knitwork_impure_split1000_batch007.csv

>  <SLURM_JOB_NAME>  (71) 
BulkDock.place:CpKRS:CpKRS_iter1_knitwork_impure_split1000_batch007

>  <name>  (71) 
FICZDWVNXDDACH-YFKPBYRVSA-N

>  <fragmenstein_error>  (71) 
None

>  <score_inspiration>  (71) 
0.638079

>  <HIPPO Compound ID>  (71) 
6336

>  <scratch_subdir>  (71) 
/opt/xchem-fragalysis-2/maxwin/BulkDock/SCRATCH/304169/C6336-P6

>  <distance_score>  (71) 
0.89666

>  <Merging Algorithm>  (71) 
Knitwork Impure

>  <subsites>  (71) 
None

>  <original SMILES>  (71) 
C[C@H](N)Cc1ccns1

>  <SLURM_JOB_ID>  (71) 
304169

>  <HIPPO Pose ID>  (71) 
49491

>  <fragmenstein_mode>  (71) 
expansion

>  <ref_pdb>  (71) 
filtered_merges_wPDBs_FICZDWVNXDDACH-YFKPBYRVSA-N.pdb

$$$$
LVJKTRYYCJTNHL-UHFFFAOYSA-N
     RDKit          3D

 17 17  0  0  0  0  0  0  0  0999 V2000
    2.5974  -12.3071   22.9726 C   0  0  0  0  0  0  0  0  0  0  0  0
    3.6989  -11.9320   23.8631 N   0  0  0  0  0  0  0  0  0  0  0  0
    4.9383  -11.7482   23.0773 C   0  0  0  0  0  0  0  0  0  0  0  0
    4.9234  -10.8372   21.8512 C   0  0  0  0  0  0  0  0  0  0  0  0
    4.3319   -9.4393   21.9481 C   0  0  0  0  0  0  0  0  0  0  0  0
    5.1990   -8.3513   22.5787 C   0  0  0  0  0  0  0  0  0  0  0  0
    5.2109   -8.2281   24.1142 C   0  0  0  0  0  0  0  0  0  0  0  0
    3.8656   -8.4915   24.7874 C   0  0  0  0  0  0  0  0  0  0  0  0
    5.7644   -6.8440   24.5079 C   0  0  0  0  0  0  0  0  0  0  0  0
    6.1745   -9.1514   24.6660 C   0  0  0  0  0  0  0  0  0  0  0  0
    6.9914   -9.8227   25.1191 N   0  0  0  0  0  0  0  0  0  0  0  0
    3.9788  -13.0641   24.7920 C   0  0  0  0  0  0  0  0  0  0  0  0
    2.9354  -13.4008   25.8312 C   0  0  0  0  0  0  0  0  0  0  0  0
    3.0933  -14.4375   26.7952 C   0  0  0  0  0  0  0  0  0  0  0  0
    1.9260  -14.4532   27.5128 C   0  0  0  0  0  0  0  0  0  0  0  0
    1.1620  -13.4598   26.9860 N   0  0  0  0  0  0  0  0  0  0  0  0
    1.7388  -12.7990   25.9714 N   0  0  0  0  0  0  0  0  0  0  0  0
  1  2  1  0
  2  3  1  0
  3  4  1  0
  4  5  1  0
  5  6  1  0
  6  7  1  0
  7  8  1  0
  7  9  1  0
  7 10  1  0
 10 11  3  0
  2 12  1  0
 12 13  1  0
 13 14  1  0
 14 15  2  0
 15 16  1  0
 16 17  1  0
 17 13  2  0
M  END
>  <inchikey>  (72) 
LVJKTRYYCJTNHL-UHFFFAOYSA-N

>  <energy_score>  (72) 
-33.430486

>  <MoCASSIn MergeScore>  (72) 
0.335545

>  <fragmenstein_outcome>  (72) 
acceptable

>  <tags>  (72) 
BulkDock Fragalysis export;Active site iter1 merge poses;Fragmenstein placed

>  <fragmenstein_runtime>  (72) 
9.962929

>  <original ID>  (72) 
LVJKTRYYCJTNHL-UHFFFAOYSA-N

>  <alias>  (72) 
None

>  <ref_mols>  (72) 
x0414a,x0421d

>  <exports>  (72) 
/opt/xchem-fragalysis-2/maxwin/BulkDock/OUTPUTS/CpKRS_iter1_knitwork_impure_split1000_batch017_304179.sdf;/opt/xchem-fragalysis-2/maxwin/BulkDock/OUTPUTS/CpKRS_iter1_knitwork_impure_fragalysis.sdf;/opt/xchem-fragalysis-2/maxwin/CpKRS_FFF/hippo/filtered_merges.sdf

>  <csv_name>  (72) 
CpKRS_iter1_knitwork_impure_split1000_batch017.csv

>  <SLURM_JOB_NAME>  (72) 
BulkDock.place:CpKRS:CpKRS_iter1_knitwork_impure_split1000_batch017

>  <name>  (72) 
LVJKTRYYCJTNHL-UHFFFAOYSA-N

>  <fragmenstein_error>  (72) 
None

>  <score_inspiration>  (72) 
0.463964

>  <HIPPO Compound ID>  (72) 
9717

>  <scratch_subdir>  (72) 
/opt/xchem-fragalysis-2/maxwin/BulkDock/SCRATCH/304179/C9717-P14

>  <distance_score>  (72) 
0.996937

>  <Merging Algorithm>  (72) 
Knitwork Impure

>  <subsites>  (72) 
None

>  <original SMILES>  (72) 
CN(CCCCC(C)(C)C#N)Cc1cc[nH]n1

>  <SLURM_JOB_ID>  (72) 
304179

>  <HIPPO Pose ID>  (72) 
49595

>  <fragmenstein_mode>  (72) 
expansion

>  <ref_pdb>  (72) 
filtered_merges_wPDBs_LVJKTRYYCJTNHL-UHFFFAOYSA-N.pdb

$$$$
WONVSJBIJSGEAI-UHFFFAOYSA-N
     RDKit          3D

 14 15  0  0  0  0  0  0  0  0999 V2000
    4.9206  -13.3521   23.9370 C   0  0  0  0  0  0  0  0  0  0  0  0
    4.1590  -12.3884   24.8902 C   0  0  0  0  0  0  0  0  0  0  0  0
    5.1329  -11.7040   25.8845 C   0  0  0  0  0  0  0  0  0  0  0  0
    3.4935  -11.3518   24.0512 N   0  0  0  0  0  0  0  0  0  0  0  0
    4.2627  -10.5391   23.3087 C   0  0  0  0  0  0  0  0  0  0  0  0
    4.4243  -10.5574   22.0079 N   0  0  0  0  0  0  0  0  0  0  0  0
    5.3139   -9.5421   21.7741 C   0  0  0  0  0  0  0  0  0  0  0  0
    5.6321   -8.9214   22.9529 C   0  0  0  0  0  0  0  0  0  0  0  0
    4.9473   -9.5472   23.9473 O   0  0  0  0  0  0  0  0  0  0  0  0
    3.1602  -13.2461   25.6717 C   0  0  0  0  0  0  0  0  0  0  0  0
    1.8716  -12.8446   25.9285 N   0  0  0  0  0  0  0  0  0  0  0  0
    1.2550  -13.8806   26.4811 N   0  0  0  0  0  0  0  0  0  0  0  0
    2.1812  -14.8458   26.5161 N   0  0  0  0  0  0  0  0  0  0  0  0
    3.3881  -14.5212   26.0325 N   0  0  0  0  0  0  0  0  0  0  0  0
  1  2  1  0
  2  3  1  0
  2  4  1  0
  4  5  1  0
  5  6  2  0
  6  7  1  0
  7  8  2  0
  8  9  1  0
  2 10  1  0
 10 11  1  0
 11 12  2  0
 12 13  1  0
 13 14  1  0
  9  5  1  0
 14 10  2  0
M  END
>  <inchikey>  (73) 
WONVSJBIJSGEAI-UHFFFAOYSA-N

>  <energy_score>  (73) 
-25.145872

>  <MoCASSIn MergeScore>  (73) 
0.586375

>  <fragmenstein_outcome>  (73) 
acceptable

>  <tags>  (73) 
BulkDock Fragalysis export;Active site iter1 merge poses;Fragmenstein placed

>  <fragmenstein_runtime>  (73) 
5.313277

>  <original ID>  (73) 
WONVSJBIJSGEAI-UHFFFAOYSA-N

>  <alias>  (73) 
None

>  <ref_mols>  (73) 
x0414a,x0421a,x0421b,x0421c

>  <exports>  (73) 
/opt/xchem-fragalysis-2/maxwin/BulkDock/OUTPUTS/CpKRS_iter1_knitwork_impure_split1000_batch007_304169.sdf;/opt/xchem-fragalysis-2/maxwin/BulkDock/OUTPUTS/CpKRS_iter1_knitwork_impure_fragalysis.sdf;/opt/xchem-fragalysis-2/maxwin/CpKRS_FFF/hippo/filtered_merges.sdf

>  <csv_name>  (73) 
CpKRS_iter1_knitwork_impure_split1000_batch007.csv

>  <SLURM_JOB_NAME>  (73) 
BulkDock.place:CpKRS:CpKRS_iter1_knitwork_impure_split1000_batch007

>  <name>  (73) 
WONVSJBIJSGEAI-UHFFFAOYSA-N

>  <fragmenstein_error>  (73) 
None

>  <score_inspiration>  (73) 
0.593432

>  <HIPPO Compound ID>  (73) 
6354

>  <scratch_subdir>  (73) 
/opt/xchem-fragalysis-2/maxwin/BulkDock/SCRATCH/304169/C6354-P6

>  <distance_score>  (73) 
0.866986

>  <Merging Algorithm>  (73) 
Knitwork Impure

>  <subsites>  (73) 
None

>  <original SMILES>  (73) 
CC(C)(Nc1ncco1)c1nn[nH]n1

>  <SLURM_JOB_ID>  (73) 
304169

>  <HIPPO Pose ID>  (73) 
49673

>  <fragmenstein_mode>  (73) 
expansion

>  <ref_pdb>  (73) 
filtered_merges_wPDBs_WONVSJBIJSGEAI-UHFFFAOYSA-N.pdb

$$$$
KOBNRFSSLYKNOE-UHFFFAOYSA-N
     RDKit          3D

 13 13  0  0  0  0  0  0  0  0999 V2000
    1.9618  -10.2875   23.5848 C   0  0  0  0  0  0  0  0  0  0  0  0
    2.8956  -11.4668   23.3370 C   0  0  0  0  0  0  0  0  0  0  0  0
    3.8740  -11.6071   24.4252 N   0  0  0  0  0  0  0  0  0  0  0  0
    4.1430  -13.0269   24.7374 C   0  0  0  0  0  0  0  0  0  0  0  0
    2.9888  -13.7086   25.4367 C   0  0  0  0  0  0  0  0  0  0  0  0
    2.8669  -15.1006   25.6706 C   0  0  0  0  0  0  0  0  0  0  0  0
    1.6613  -15.2552   26.3096 C   0  0  0  0  0  0  0  0  0  0  0  0
    1.1593  -14.0011   26.4656 N   0  0  0  0  0  0  0  0  0  0  0  0
    1.9286  -13.0469   25.9312 N   0  0  0  0  0  0  0  0  0  0  0  0
    5.1352  -10.8883   24.1673 C   0  0  0  0  0  0  0  0  0  0  0  0
    5.0604   -9.3651   24.2914 C   0  0  0  0  0  0  0  0  0  0  0  0
    4.9327   -8.7973   23.0615 F   0  0  0  0  0  0  0  0  0  0  0  0
    6.2290   -8.9084   24.8103 F   0  0  0  0  0  0  0  0  0  0  0  0
  1  2  1  0
  2  3  1  0
  3  4  1  0
  4  5  1  0
  5  6  1  0
  6  7  2  0
  7  8  1  0
  8  9  1  0
  3 10  1  0
 10 11  1  0
 11 12  1  0
 11 13  1  0
  9  5  2  0
M  END
>  <inchikey>  (74) 
KOBNRFSSLYKNOE-UHFFFAOYSA-N

>  <energy_score>  (74) 
-14.56688

>  <MoCASSIn MergeScore>  (74) 
0.404491

>  <fragmenstein_outcome>  (74) 
acceptable

>  <tags>  (74) 
BulkDock Fragalysis export;Active site iter1 merge poses;Fragmenstein placed

>  <fragmenstein_runtime>  (74) 
7.679551

>  <original ID>  (74) 
KOBNRFSSLYKNOE-UHFFFAOYSA-N

>  <alias>  (74) 
None

>  <ref_mols>  (74) 
x0414a,x0421d

>  <exports>  (74) 
/opt/xchem-fragalysis-2/maxwin/BulkDock/OUTPUTS/CpKRS_iter1_knitwork_impure_split1000_batch017_304179.sdf;/opt/xchem-fragalysis-2/maxwin/BulkDock/OUTPUTS/CpKRS_iter1_knitwork_impure_fragalysis.sdf;/opt/xchem-fragalysis-2/maxwin/CpKRS_FFF/hippo/filtered_merges.sdf

>  <csv_name>  (74) 
CpKRS_iter1_knitwork_impure_split1000_batch017.csv

>  <SLURM_JOB_NAME>  (74) 
BulkDock.place:CpKRS:CpKRS_iter1_knitwork_impure_split1000_batch017

>  <name>  (74) 
KOBNRFSSLYKNOE-UHFFFAOYSA-N

>  <fragmenstein_error>  (74) 
None

>  <score_inspiration>  (74) 
0.58942

>  <HIPPO Compound ID>  (74) 
9721

>  <scratch_subdir>  (74) 
/opt/xchem-fragalysis-2/maxwin/BulkDock/SCRATCH/304179/C9721-P6

>  <distance_score>  (74) 
0.959888

>  <Merging Algorithm>  (74) 
Knitwork Impure

>  <subsites>  (74) 
None

>  <original SMILES>  (74) 
CCN(Cc1cc[nH]n1)CC(F)F

>  <SLURM_JOB_ID>  (74) 
304179

>  <HIPPO Pose ID>  (74) 
49726

>  <fragmenstein_mode>  (74) 
expansion

>  <ref_pdb>  (74) 
filtered_merges_wPDBs_KOBNRFSSLYKNOE-UHFFFAOYSA-N.pdb

$$$$
KOBNRFSSLYKNOE-UHFFFAOYSA-N
     RDKit          3D

 13 13  0  0  0  0  0  0  0  0999 V2000
    1.5658  -10.1251   24.0644 C   0  0  0  0  0  0  0  0  0  0  0  0
    2.4757  -11.1679   23.4290 C   0  0  0  0  0  0  0  0  0  0  0  0
    3.6655  -11.4235   24.2704 N   0  0  0  0  0  0  0  0  0  0  0  0
    3.8068  -12.8860   24.5119 C   0  0  0  0  0  0  0  0  0  0  0  0
    2.9172  -13.3853   25.6344 C   0  0  0  0  0  0  0  0  0  0  0  0
    3.2983  -14.3261   26.6314 C   0  0  0  0  0  0  0  0  0  0  0  0
    2.1861  -14.5024   27.4156 C   0  0  0  0  0  0  0  0  0  0  0  0
    1.2372  -13.6814   26.8924 N   0  0  0  0  0  0  0  0  0  0  0  0
    1.6276  -13.0254   25.7907 N   0  0  0  0  0  0  0  0  0  0  0  0
    4.8951  -10.9089   23.6127 C   0  0  0  0  0  0  0  0  0  0  0  0
    5.0961   -9.3934   23.7432 C   0  0  0  0  0  0  0  0  0  0  0  0
    5.9864   -8.9653   22.8114 F   0  0  0  0  0  0  0  0  0  0  0  0
    5.6266   -9.0946   24.9580 F   0  0  0  0  0  0  0  0  0  0  0  0
  1  2  1  0
  2  3  1  0
  3  4  1  0
  4  5  1  0
  5  6  1  0
  6  7  2  0
  7  8  1  0
  8  9  1  0
  3 10  1  0
 10 11  1  0
 11 12  1  0
 11 13  1  0
  9  5  2  0
M  END
>  <inchikey>  (75) 
KOBNRFSSLYKNOE-UHFFFAOYSA-N

>  <energy_score>  (75) 
-13.371478

>  <MoCASSIn MergeScore>  (75) 
0.404794

>  <fragmenstein_outcome>  (75) 
acceptable

>  <tags>  (75) 
BulkDock Fragalysis export;Active site iter1 merge poses;Fragmenstein placed

>  <fragmenstein_runtime>  (75) 
5.962771

>  <original ID>  (75) 
KOBNRFSSLYKNOE-UHFFFAOYSA-N

>  <alias>  (75) 
None

>  <ref_mols>  (75) 
x0414a,x0421d

>  <exports>  (75) 
/opt/xchem-fragalysis-2/maxwin/BulkDock/OUTPUTS/CpKRS_iter1_knitwork_impure_split1000_batch017_304179.sdf;/opt/xchem-fragalysis-2/maxwin/BulkDock/OUTPUTS/CpKRS_iter1_knitwork_impure_fragalysis.sdf;/opt/xchem-fragalysis-2/maxwin/CpKRS_FFF/hippo/filtered_merges.sdf

>  <csv_name>  (75) 
CpKRS_iter1_knitwork_impure_split1000_batch017.csv

>  <SLURM_JOB_NAME>  (75) 
BulkDock.place:CpKRS:CpKRS_iter1_knitwork_impure_split1000_batch017

>  <name>  (75) 
KOBNRFSSLYKNOE-UHFFFAOYSA-N

>  <fragmenstein_error>  (75) 
None

>  <score_inspiration>  (75) 
0.588598

>  <HIPPO Compound ID>  (75) 
9721

>  <scratch_subdir>  (75) 
/opt/xchem-fragalysis-2/maxwin/BulkDock/SCRATCH/304179/C9721-P14

>  <distance_score>  (75) 
0.604125

>  <Merging Algorithm>  (75) 
Knitwork Impure

>  <subsites>  (75) 
None

>  <original SMILES>  (75) 
CCN(Cc1cc[nH]n1)CC(F)F

>  <SLURM_JOB_ID>  (75) 
304179

>  <HIPPO Pose ID>  (75) 
49743

>  <fragmenstein_mode>  (75) 
expansion

>  <ref_pdb>  (75) 
filtered_merges_wPDBs_KOBNRFSSLYKNOE-UHFFFAOYSA-N.pdb

$$$$
VPUFCMBECWEKNH-MRVPVSSYSA-N
     RDKit          3D

 11 11  0  0  0  0  0  0  0  0999 V2000
    5.5065  -10.2945   21.8530 C   0  0  0  0  0  0  0  0  0  0  0  0
    5.4870   -9.1064   22.8116 C   0  0  0  0  0  0  0  0  0  0  0  0
    5.1061   -7.8884   21.9915 C   0  0  0  0  0  0  0  0  0  0  0  0
    4.5412   -9.4469   23.9938 C   0  0  2  0  0  0  0  0  0  0  0  0
    3.5847   -8.3655   24.3177 N   0  0  0  0  0  0  0  0  0  0  0  0
    5.3699   -9.8895   25.2237 C   0  0  0  0  0  0  0  0  0  0  0  0
    4.7051  -10.9657   25.9286 N   0  0  0  0  0  0  0  0  0  0  0  0
    3.8243  -10.8404   26.9563 C   0  0  0  0  0  0  0  0  0  0  0  0
    3.2847  -12.0892   27.1398 C   0  0  0  0  0  0  0  0  0  0  0  0
    3.9647  -12.9124   26.2225 C   0  0  0  0  0  0  0  0  0  0  0  0
    4.8462  -12.2283   25.4870 N   0  0  0  0  0  0  0  0  0  0  0  0
  1  2  1  0
  2  3  1  0
  2  4  1  0
  4  5  1  1
  4  6  1  0
  6  7  1  0
  7  8  1  0
  8  9  2  0
  9 10  1  0
 10 11  2  0
 11  7  1  0
M  END
>  <inchikey>  (76) 
VPUFCMBECWEKNH-MRVPVSSYSA-N

>  <energy_score>  (76) 
-16.660375

>  <MoCASSIn MergeScore>  (76) 
0.321529

>  <fragmenstein_outcome>  (76) 
acceptable

>  <tags>  (76) 
BulkDock Fragalysis export;Active site iter1 merge poses;Fragmenstein placed

>  <fragmenstein_runtime>  (76) 
4.320747

>  <original ID>  (76) 
VPUFCMBECWEKNH-MRVPVSSYSA-N

>  <alias>  (76) 
None

>  <ref_mols>  (76) 
x0414a,x0421b

>  <exports>  (76) 
/opt/xchem-fragalysis-2/maxwin/BulkDock/OUTPUTS/CpKRS_iter1_knitwork_impure_split1000_batch014_304176.sdf;/opt/xchem-fragalysis-2/maxwin/BulkDock/OUTPUTS/CpKRS_iter1_knitwork_impure_fragalysis.sdf;/opt/xchem-fragalysis-2/maxwin/CpKRS_FFF/hippo/filtered_merges.sdf

>  <csv_name>  (76) 
CpKRS_iter1_knitwork_impure_split1000_batch014.csv

>  <SLURM_JOB_NAME>  (76) 
BulkDock.place:CpKRS:CpKRS_iter1_knitwork_impure_split1000_batch014

>  <name>  (76) 
VPUFCMBECWEKNH-MRVPVSSYSA-N

>  <fragmenstein_error>  (76) 
None

>  <score_inspiration>  (76) 
0.537462

>  <HIPPO Compound ID>  (76) 
9739

>  <scratch_subdir>  (76) 
/opt/xchem-fragalysis-2/maxwin/BulkDock/SCRATCH/304176/C9739-P6

>  <distance_score>  (76) 
0.89845

>  <Merging Algorithm>  (76) 
Knitwork Impure

>  <subsites>  (76) 
None

>  <original SMILES>  (76) 
CC(C)[C@H](N)Cn1cccn1

>  <SLURM_JOB_ID>  (76) 
304176

>  <HIPPO Pose ID>  (76) 
49996

>  <fragmenstein_mode>  (76) 
expansion

>  <ref_pdb>  (76) 
filtered_merges_wPDBs_VPUFCMBECWEKNH-MRVPVSSYSA-N.pdb

$$$$
YESUYWASMAYRSO-UHFFFAOYSA-N
     RDKit          3D

 15 15  0  0  0  0  0  0  0  0999 V2000
    3.4008   -9.1096   24.4593 C   0  0  0  0  0  0  0  0  0  0  0  0
    4.7983   -9.6248   24.0803 C   0  0  0  0  0  0  0  0  0  0  0  0
    5.6602   -9.6159   25.3472 C   0  0  0  0  0  0  0  0  0  0  0  0
    4.7161  -11.0292   23.4409 C   0  0  0  0  0  0  0  0  0  0  0  0
    3.7660  -11.9330   24.0793 N   0  0  0  0  0  0  0  0  0  0  0  0
    4.3277  -12.8351   25.0751 C   0  0  0  0  0  0  0  0  0  0  0  0
    3.2004  -13.6129   25.6403 C   0  0  0  0  0  0  0  0  0  0  0  0
    2.9951  -14.9608   25.8234 C   0  0  0  0  0  0  0  0  0  0  0  0
    1.6957  -15.0565   26.3567 C   0  0  0  0  0  0  0  0  0  0  0  0
    1.1144  -13.8641   26.5104 N   0  0  0  0  0  0  0  0  0  0  0  0
    2.0604  -13.0032   26.0954 N   0  0  0  0  0  0  0  0  0  0  0  0
    5.4192   -8.6993   23.0319 C   0  0  0  0  0  0  0  0  0  0  0  0
    4.6744   -8.6708   21.9018 F   0  0  0  0  0  0  0  0  0  0  0  0
    6.6510   -9.1044   22.6788 F   0  0  0  0  0  0  0  0  0  0  0  0
    5.5212   -7.4278   23.4759 F   0  0  0  0  0  0  0  0  0  0  0  0
  1  2  1  0
  2  3  1  0
  2  4  1  0
  4  5  1  0
  5  6  1  0
  6  7  1  0
  7  8  2  0
  8  9  1  0
  9 10  2  0
 10 11  1  0
  2 12  1  0
 12 13  1  0
 12 14  1  0
 12 15  1  0
 11  7  1  0
M  END
>  <inchikey>  (77) 
YESUYWASMAYRSO-UHFFFAOYSA-N

>  <energy_score>  (77) 
-25.559662

>  <MoCASSIn MergeScore>  (77) 
0.357262

>  <fragmenstein_outcome>  (77) 
acceptable

>  <tags>  (77) 
BulkDock Fragalysis export;Active site iter1 merge poses;Fragmenstein placed

>  <fragmenstein_runtime>  (77) 
12.796454

>  <original ID>  (77) 
YESUYWASMAYRSO-UHFFFAOYSA-N

>  <alias>  (77) 
None

>  <ref_mols>  (77) 
x0414a,x0421b

>  <exports>  (77) 
/opt/xchem-fragalysis-2/maxwin/BulkDock/OUTPUTS/CpKRS_iter1_knitwork_impure_split1000_batch014_304176.sdf;/opt/xchem-fragalysis-2/maxwin/BulkDock/OUTPUTS/CpKRS_iter1_knitwork_impure_fragalysis.sdf;/opt/xchem-fragalysis-2/maxwin/CpKRS_FFF/hippo/filtered_merges.sdf

>  <csv_name>  (77) 
CpKRS_iter1_knitwork_impure_split1000_batch014.csv

>  <SLURM_JOB_NAME>  (77) 
BulkDock.place:CpKRS:CpKRS_iter1_knitwork_impure_split1000_batch014

>  <name>  (77) 
YESUYWASMAYRSO-UHFFFAOYSA-N

>  <fragmenstein_error>  (77) 
None

>  <score_inspiration>  (77) 
0.521797

>  <HIPPO Compound ID>  (77) 
9744

>  <scratch_subdir>  (77) 
/opt/xchem-fragalysis-2/maxwin/BulkDock/SCRATCH/304176/C9744-P6

>  <distance_score>  (77) 
0.736237

>  <Merging Algorithm>  (77) 
Knitwork Impure

>  <subsites>  (77) 
None

>  <original SMILES>  (77) 
CC(C)(CNCc1ccn[nH]1)C(F)(F)F

>  <SLURM_JOB_ID>  (77) 
304176

>  <HIPPO Pose ID>  (77) 
50131

>  <fragmenstein_mode>  (77) 
expansion

>  <ref_pdb>  (77) 
filtered_merges_wPDBs_YESUYWASMAYRSO-UHFFFAOYSA-N.pdb

$$$$
YESUYWASMAYRSO-UHFFFAOYSA-N
     RDKit          3D

 15 15  0  0  0  0  0  0  0  0999 V2000
    3.6213   -8.8627   24.1217 C   0  0  0  0  0  0  0  0  0  0  0  0
    4.9653   -9.4602   23.6970 C   0  0  0  0  0  0  0  0  0  0  0  0
    5.9939   -9.1015   24.7806 C   0  0  0  0  0  0  0  0  0  0  0  0
    4.8400  -10.9841   23.4676 C   0  0  0  0  0  0  0  0  0  0  0  0
    4.0226  -11.6497   24.4866 N   0  0  0  0  0  0  0  0  0  0  0  0
    4.3132  -13.0808   24.5577 C   0  0  0  0  0  0  0  0  0  0  0  0
    3.3990  -13.7975   25.4843 C   0  0  0  0  0  0  0  0  0  0  0  0
    3.4212  -15.1142   25.8956 C   0  0  0  0  0  0  0  0  0  0  0  0
    2.3066  -15.2561   26.7350 C   0  0  0  0  0  0  0  0  0  0  0  0
    1.6052  -14.1281   26.8414 N   0  0  0  0  0  0  0  0  0  0  0  0
    2.3373  -13.2344   26.1490 N   0  0  0  0  0  0  0  0  0  0  0  0
    5.4183   -8.8383   22.3782 C   0  0  0  0  0  0  0  0  0  0  0  0
    4.5254   -9.0831   21.3940 F   0  0  0  0  0  0  0  0  0  0  0  0
    6.6021   -9.3241   21.9709 F   0  0  0  0  0  0  0  0  0  0  0  0
    5.5313   -7.4937   22.4775 F   0  0  0  0  0  0  0  0  0  0  0  0
  1  2  1  0
  2  3  1  0
  2  4  1  0
  4  5  1  0
  5  6  1  0
  6  7  1  0
  7  8  2  0
  8  9  1  0
  9 10  2  0
 10 11  1  0
  2 12  1  0
 12 13  1  0
 12 14  1  0
 12 15  1  0
 11  7  1  0
M  END
>  <inchikey>  (78) 
YESUYWASMAYRSO-UHFFFAOYSA-N

>  <energy_score>  (78) 
-21.90985

>  <MoCASSIn MergeScore>  (78) 
0.374922

>  <fragmenstein_outcome>  (78) 
acceptable

>  <tags>  (78) 
BulkDock Fragalysis export;Active site iter1 merge poses;Fragmenstein placed

>  <fragmenstein_runtime>  (78) 
12.537884

>  <original ID>  (78) 
YESUYWASMAYRSO-UHFFFAOYSA-N

>  <alias>  (78) 
None

>  <ref_mols>  (78) 
x0414a,x0421b

>  <exports>  (78) 
/opt/xchem-fragalysis-2/maxwin/BulkDock/OUTPUTS/CpKRS_iter1_knitwork_impure_split1000_batch014_304176.sdf;/opt/xchem-fragalysis-2/maxwin/BulkDock/OUTPUTS/CpKRS_iter1_knitwork_impure_fragalysis.sdf;/opt/xchem-fragalysis-2/maxwin/CpKRS_FFF/hippo/filtered_merges.sdf

>  <csv_name>  (78) 
CpKRS_iter1_knitwork_impure_split1000_batch014.csv

>  <SLURM_JOB_NAME>  (78) 
BulkDock.place:CpKRS:CpKRS_iter1_knitwork_impure_split1000_batch014

>  <name>  (78) 
YESUYWASMAYRSO-UHFFFAOYSA-N

>  <fragmenstein_error>  (78) 
None

>  <score_inspiration>  (78) 
0.539132

>  <HIPPO Compound ID>  (78) 
9744

>  <scratch_subdir>  (78) 
/opt/xchem-fragalysis-2/maxwin/BulkDock/SCRATCH/304176/C9744-P12

>  <distance_score>  (78) 
0.892054

>  <Merging Algorithm>  (78) 
Knitwork Impure

>  <subsites>  (78) 
None

>  <original SMILES>  (78) 
CC(C)(CNCc1ccn[nH]1)C(F)(F)F

>  <SLURM_JOB_ID>  (78) 
304176

>  <HIPPO Pose ID>  (78) 
50144

>  <fragmenstein_mode>  (78) 
expansion

>  <ref_pdb>  (78) 
filtered_merges_wPDBs_YESUYWASMAYRSO-UHFFFAOYSA-N.pdb

$$$$
VPUFCMBECWEKNH-MRVPVSSYSA-N
     RDKit          3D

 11 11  0  0  0  0  0  0  0  0999 V2000
    5.3382  -10.1148   21.5036 C   0  0  0  0  0  0  0  0  0  0  0  0
    5.5872   -9.2842   22.7574 C   0  0  0  0  0  0  0  0  0  0  0  0
    5.3489   -7.8253   22.4202 C   0  0  0  0  0  0  0  0  0  0  0  0
    4.7239   -9.8330   23.9120 C   0  0  2  0  0  0  0  0  0  0  0  0
    3.4083   -9.1899   23.9996 N   0  0  0  0  0  0  0  0  0  0  0  0
    5.4656   -9.8278   25.2630 C   0  0  0  0  0  0  0  0  0  0  0  0
    4.9231  -10.8876   26.0970 N   0  0  0  0  0  0  0  0  0  0  0  0
    3.9273  -10.7579   27.0138 C   0  0  0  0  0  0  0  0  0  0  0  0
    3.4520  -12.0262   27.2319 C   0  0  0  0  0  0  0  0  0  0  0  0
    4.2961  -12.8597   26.4740 C   0  0  0  0  0  0  0  0  0  0  0  0
    5.2337  -12.1698   25.8163 N   0  0  0  0  0  0  0  0  0  0  0  0
  1  2  1  0
  2  3  1  0
  2  4  1  0
  4  5  1  1
  4  6  1  0
  6  7  1  0
  7  8  1  0
  8  9  2  0
  9 10  1  0
 10 11  2  0
 11  7  1  0
M  END
>  <inchikey>  (79) 
VPUFCMBECWEKNH-MRVPVSSYSA-N

>  <energy_score>  (79) 
-15.230009

>  <MoCASSIn MergeScore>  (79) 
0.324466

>  <fragmenstein_outcome>  (79) 
acceptable

>  <tags>  (79) 
BulkDock Fragalysis export;Active site iter1 merge poses;Fragmenstein placed

>  <fragmenstein_runtime>  (79) 
4.536444

>  <original ID>  (79) 
VPUFCMBECWEKNH-MRVPVSSYSA-N

>  <alias>  (79) 
None

>  <ref_mols>  (79) 
x0414a,x0421d

>  <exports>  (79) 
/opt/xchem-fragalysis-2/maxwin/BulkDock/OUTPUTS/CpKRS_iter1_knitwork_impure_split1000_batch017_304179.sdf;/opt/xchem-fragalysis-2/maxwin/BulkDock/OUTPUTS/CpKRS_iter1_knitwork_impure_fragalysis.sdf;/opt/xchem-fragalysis-2/maxwin/CpKRS_FFF/hippo/filtered_merges.sdf

>  <csv_name>  (79) 
CpKRS_iter1_knitwork_impure_split1000_batch017.csv

>  <SLURM_JOB_NAME>  (79) 
BulkDock.place:CpKRS:CpKRS_iter1_knitwork_impure_split1000_batch017

>  <name>  (79) 
VPUFCMBECWEKNH-MRVPVSSYSA-N

>  <fragmenstein_error>  (79) 
None

>  <score_inspiration>  (79) 
0.545712

>  <HIPPO Compound ID>  (79) 
9739

>  <scratch_subdir>  (79) 
/opt/xchem-fragalysis-2/maxwin/BulkDock/SCRATCH/304179/C9739-P6

>  <distance_score>  (79) 
0.852801

>  <Merging Algorithm>  (79) 
Knitwork Impure

>  <subsites>  (79) 
None

>  <original SMILES>  (79) 
CC(C)[C@H](N)Cn1cccn1

>  <SLURM_JOB_ID>  (79) 
304179

>  <HIPPO Pose ID>  (79) 
50248

>  <fragmenstein_mode>  (79) 
expansion

>  <ref_pdb>  (79) 
filtered_merges_wPDBs_VPUFCMBECWEKNH-MRVPVSSYSA-N.pdb

$$$$
OXIAPVQVVNULLD-UHFFFAOYSA-N
     RDKit          3D

  9  9  0  0  0  0  0  0  0  0999 V2000
    5.6380  -10.1803   25.7061 N   0  0  0  0  0  0  0  0  0  0  0  0
    4.9606  -10.8227   25.0233 C   0  0  0  0  0  0  0  0  0  0  0  0
    4.1812  -11.6199   24.2909 N   0  0  0  0  0  0  0  0  0  0  0  0
    4.2838  -13.1048   24.4105 C   0  0  0  0  0  0  0  0  0  0  0  0
    3.0963  -13.6190   25.1681 C   0  0  0  0  0  0  0  0  0  0  0  0
    2.9568  -14.8694   25.8096 C   0  0  0  0  0  0  0  0  0  0  0  0
    1.6807  -14.8660   26.3178 C   0  0  0  0  0  0  0  0  0  0  0  0
    1.1544  -13.6494   26.0098 N   0  0  0  0  0  0  0  0  0  0  0  0
    1.9736  -12.8842   25.2706 N   0  0  0  0  0  0  0  0  0  0  0  0
  1  2  3  0
  2  3  1  0
  3  4  1  0
  4  5  1  0
  5  6  1  0
  6  7  2  0
  7  8  1  0
  8  9  1  0
  9  5  2  0
M  END
>  <inchikey>  (80) 
OXIAPVQVVNULLD-UHFFFAOYSA-N

>  <energy_score>  (80) 
-14.817154

>  <MoCASSIn MergeScore>  (80) 
0.3805

>  <fragmenstein_outcome>  (80) 
acceptable

>  <tags>  (80) 
BulkDock Fragalysis export;Active site iter1 merge poses;Fragmenstein placed

>  <fragmenstein_runtime>  (80) 
3.485141

>  <original ID>  (80) 
OXIAPVQVVNULLD-UHFFFAOYSA-N

>  <alias>  (80) 
None

>  <ref_mols>  (80) 
x0414a,x0421b

>  <exports>  (80) 
/opt/xchem-fragalysis-2/maxwin/BulkDock/OUTPUTS/CpKRS_iter1_knitwork_impure_split1000_batch014_304176.sdf;/opt/xchem-fragalysis-2/maxwin/BulkDock/OUTPUTS/CpKRS_iter1_knitwork_impure_fragalysis.sdf;/opt/xchem-fragalysis-2/maxwin/CpKRS_FFF/hippo/filtered_merges.sdf

>  <csv_name>  (80) 
CpKRS_iter1_knitwork_impure_split1000_batch014.csv

>  <SLURM_JOB_NAME>  (80) 
BulkDock.place:CpKRS:CpKRS_iter1_knitwork_impure_split1000_batch014

>  <name>  (80) 
OXIAPVQVVNULLD-UHFFFAOYSA-N

>  <fragmenstein_error>  (80) 
None

>  <score_inspiration>  (80) 
0.648625

>  <HIPPO Compound ID>  (80) 
9753

>  <scratch_subdir>  (80) 
/opt/xchem-fragalysis-2/maxwin/BulkDock/SCRATCH/304176/C9753-P6

>  <distance_score>  (80) 
0.837741

>  <Merging Algorithm>  (80) 
Knitwork Impure

>  <subsites>  (80) 
None

>  <original SMILES>  (80) 
N#CNCc1cc[nH]n1

>  <SLURM_JOB_ID>  (80) 
304176

>  <HIPPO Pose ID>  (80) 
50299

>  <fragmenstein_mode>  (80) 
expansion

>  <ref_pdb>  (80) 
filtered_merges_wPDBs_OXIAPVQVVNULLD-UHFFFAOYSA-N.pdb

$$$$
OXIAPVQVVNULLD-UHFFFAOYSA-N
     RDKit          3D

  9  9  0  0  0  0  0  0  0  0999 V2000
    5.2729   -9.8448   24.5036 N   0  0  0  0  0  0  0  0  0  0  0  0
    4.7353  -10.8005   24.1348 C   0  0  0  0  0  0  0  0  0  0  0  0
    4.0978  -11.9067   23.7535 N   0  0  0  0  0  0  0  0  0  0  0  0
    4.3372  -13.2332   24.4070 C   0  0  0  0  0  0  0  0  0  0  0  0
    3.1963  -13.5165   25.3374 C   0  0  0  0  0  0  0  0  0  0  0  0
    3.1388  -14.4365   26.4093 C   0  0  0  0  0  0  0  0  0  0  0  0
    1.9125  -14.2213   26.9923 C   0  0  0  0  0  0  0  0  0  0  0  0
    1.3353  -13.2011   26.2920 N   0  0  0  0  0  0  0  0  0  0  0  0
    2.0398  -12.8438   25.2028 N   0  0  0  0  0  0  0  0  0  0  0  0
  1  2  3  0
  2  3  1  0
  3  4  1  0
  4  5  1  0
  5  6  1  0
  6  7  2  0
  7  8  1  0
  8  9  1  0
  9  5  2  0
M  END
>  <inchikey>  (81) 
OXIAPVQVVNULLD-UHFFFAOYSA-N

>  <energy_score>  (81) 
-13.903743

>  <MoCASSIn MergeScore>  (81) 
0.350159

>  <fragmenstein_outcome>  (81) 
acceptable

>  <tags>  (81) 
BulkDock Fragalysis export;Active site iter1 merge poses;Fragmenstein placed

>  <fragmenstein_runtime>  (81) 
3.134003

>  <original ID>  (81) 
OXIAPVQVVNULLD-UHFFFAOYSA-N

>  <alias>  (81) 
None

>  <ref_mols>  (81) 
x0414a,x0421b

>  <exports>  (81) 
/opt/xchem-fragalysis-2/maxwin/BulkDock/OUTPUTS/CpKRS_iter1_knitwork_impure_split1000_batch014_304176.sdf;/opt/xchem-fragalysis-2/maxwin/BulkDock/OUTPUTS/CpKRS_iter1_knitwork_impure_fragalysis.sdf;/opt/xchem-fragalysis-2/maxwin/CpKRS_FFF/hippo/filtered_merges.sdf

>  <csv_name>  (81) 
CpKRS_iter1_knitwork_impure_split1000_batch014.csv

>  <SLURM_JOB_NAME>  (81) 
BulkDock.place:CpKRS:CpKRS_iter1_knitwork_impure_split1000_batch014

>  <name>  (81) 
OXIAPVQVVNULLD-UHFFFAOYSA-N

>  <fragmenstein_error>  (81) 
None

>  <score_inspiration>  (81) 
0.625115

>  <HIPPO Compound ID>  (81) 
9753

>  <scratch_subdir>  (81) 
/opt/xchem-fragalysis-2/maxwin/BulkDock/SCRATCH/304176/C9753-P12

>  <distance_score>  (81) 
0.909886

>  <Merging Algorithm>  (81) 
Knitwork Impure

>  <subsites>  (81) 
None

>  <original SMILES>  (81) 
N#CNCc1cc[nH]n1

>  <SLURM_JOB_ID>  (81) 
304176

>  <HIPPO Pose ID>  (81) 
50304

>  <fragmenstein_mode>  (81) 
expansion

>  <ref_pdb>  (81) 
filtered_merges_wPDBs_OXIAPVQVVNULLD-UHFFFAOYSA-N.pdb

$$$$
YESUYWASMAYRSO-UHFFFAOYSA-N
     RDKit          3D

 15 15  0  0  0  0  0  0  0  0999 V2000
    5.6442   -9.6903   25.1655 C   0  0  0  0  0  0  0  0  0  0  0  0
    4.7537   -9.7346   23.9154 C   0  0  0  0  0  0  0  0  0  0  0  0
    3.3593   -9.2219   24.3144 C   0  0  0  0  0  0  0  0  0  0  0  0
    4.6699  -11.1508   23.2977 C   0  0  0  0  0  0  0  0  0  0  0  0
    3.7284  -12.0490   23.9562 N   0  0  0  0  0  0  0  0  0  0  0  0
    4.2970  -12.9110   24.9840 C   0  0  0  0  0  0  0  0  0  0  0  0
    3.1675  -13.6356   25.6120 C   0  0  0  0  0  0  0  0  0  0  0  0
    2.9265  -14.9702   25.8421 C   0  0  0  0  0  0  0  0  0  0  0  0
    1.6438  -15.0079   26.4209 C   0  0  0  0  0  0  0  0  0  0  0  0
    1.1077  -13.7932   26.5634 N   0  0  0  0  0  0  0  0  0  0  0  0
    2.0656  -12.9764   26.0908 N   0  0  0  0  0  0  0  0  0  0  0  0
    5.3449   -8.8205   22.8388 C   0  0  0  0  0  0  0  0  0  0  0  0
    4.5700   -8.8059   21.7280 F   0  0  0  0  0  0  0  0  0  0  0  0
    6.5700   -9.2195   22.4557 F   0  0  0  0  0  0  0  0  0  0  0  0
    5.4463   -7.5420   23.2644 F   0  0  0  0  0  0  0  0  0  0  0  0
  1  2  1  0
  2  3  1  0
  2  4  1  0
  4  5  1  0
  5  6  1  0
  6  7  1  0
  7  8  2  0
  8  9  1  0
  9 10  2  0
 10 11  1  0
  2 12  1  0
 12 13  1  0
 12 14  1  0
 12 15  1  0
 11  7  1  0
M  END
>  <inchikey>  (82) 
YESUYWASMAYRSO-UHFFFAOYSA-N

>  <energy_score>  (82) 
-25.331502

>  <MoCASSIn MergeScore>  (82) 
0.361993

>  <fragmenstein_outcome>  (82) 
acceptable

>  <tags>  (82) 
BulkDock Fragalysis export;Active site iter1 merge poses;Fragmenstein placed

>  <fragmenstein_runtime>  (82) 
12.577783

>  <original ID>  (82) 
YESUYWASMAYRSO-UHFFFAOYSA-N

>  <alias>  (82) 
None

>  <ref_mols>  (82) 
x0414a,x0421d

>  <exports>  (82) 
/opt/xchem-fragalysis-2/maxwin/BulkDock/OUTPUTS/CpKRS_iter1_knitwork_impure_split1000_batch017_304179.sdf;/opt/xchem-fragalysis-2/maxwin/BulkDock/OUTPUTS/CpKRS_iter1_knitwork_impure_fragalysis.sdf;/opt/xchem-fragalysis-2/maxwin/CpKRS_FFF/hippo/filtered_merges.sdf

>  <csv_name>  (82) 
CpKRS_iter1_knitwork_impure_split1000_batch017.csv

>  <SLURM_JOB_NAME>  (82) 
BulkDock.place:CpKRS:CpKRS_iter1_knitwork_impure_split1000_batch017

>  <name>  (82) 
YESUYWASMAYRSO-UHFFFAOYSA-N

>  <fragmenstein_error>  (82) 
None

>  <score_inspiration>  (82) 
0.53066

>  <HIPPO Compound ID>  (82) 
9744

>  <scratch_subdir>  (82) 
/opt/xchem-fragalysis-2/maxwin/BulkDock/SCRATCH/304179/C9744-P6

>  <distance_score>  (82) 
0.75682

>  <Merging Algorithm>  (82) 
Knitwork Impure

>  <subsites>  (82) 
None

>  <original SMILES>  (82) 
CC(C)(CNCc1ccn[nH]1)C(F)(F)F

>  <SLURM_JOB_ID>  (82) 
304179

>  <HIPPO Pose ID>  (82) 
50401

>  <fragmenstein_mode>  (82) 
expansion

>  <ref_pdb>  (82) 
filtered_merges_wPDBs_YESUYWASMAYRSO-UHFFFAOYSA-N.pdb

$$$$
YESUYWASMAYRSO-UHFFFAOYSA-N
     RDKit          3D

 15 15  0  0  0  0  0  0  0  0999 V2000
    5.9914   -9.1567   24.5512 C   0  0  0  0  0  0  0  0  0  0  0  0
    4.9342   -9.5250   23.4992 C   0  0  0  0  0  0  0  0  0  0  0  0
    3.6230   -8.8446   23.9112 C   0  0  0  0  0  0  0  0  0  0  0  0
    4.7398  -11.0513   23.3422 C   0  0  0  0  0  0  0  0  0  0  0  0
    4.2050  -11.6500   24.5558 N   0  0  0  0  0  0  0  0  0  0  0  0
    4.0433  -13.0980   24.4610 C   0  0  0  0  0  0  0  0  0  0  0  0
    3.0673  -13.5171   25.5020 C   0  0  0  0  0  0  0  0  0  0  0  0
    3.1944  -14.1672   26.7088 C   0  0  0  0  0  0  0  0  0  0  0  0
    1.8860  -14.2316   27.2249 C   0  0  0  0  0  0  0  0  0  0  0  0
    0.9811  -13.6993   26.3954 N   0  0  0  0  0  0  0  0  0  0  0  0
    1.7247  -13.3132   25.3428 N   0  0  0  0  0  0  0  0  0  0  0  0
    5.3727   -8.9852   22.1402 C   0  0  0  0  0  0  0  0  0  0  0  0
    4.4510   -9.2593   21.1909 F   0  0  0  0  0  0  0  0  0  0  0  0
    6.5330   -9.5227   21.7308 F   0  0  0  0  0  0  0  0  0  0  0  0
    5.5177   -7.6395   22.1641 F   0  0  0  0  0  0  0  0  0  0  0  0
  1  2  1  0
  2  3  1  0
  2  4  1  0
  4  5  1  0
  5  6  1  0
  6  7  1  0
  7  8  2  0
  8  9  1  0
  9 10  2  0
 10 11  1  0
  2 12  1  0
 12 13  1  0
 12 14  1  0
 12 15  1  0
 11  7  1  0
M  END
>  <inchikey>  (83) 
YESUYWASMAYRSO-UHFFFAOYSA-N

>  <energy_score>  (83) 
-23.52332

>  <MoCASSIn MergeScore>  (83) 
0.393991

>  <fragmenstein_outcome>  (83) 
acceptable

>  <tags>  (83) 
BulkDock Fragalysis export;Active site iter1 merge poses;Fragmenstein placed

>  <fragmenstein_runtime>  (83) 
11.950622

>  <original ID>  (83) 
YESUYWASMAYRSO-UHFFFAOYSA-N

>  <alias>  (83) 
None

>  <ref_mols>  (83) 
x0414a,x0421d

>  <exports>  (83) 
/opt/xchem-fragalysis-2/maxwin/BulkDock/OUTPUTS/CpKRS_iter1_knitwork_impure_split1000_batch017_304179.sdf;/opt/xchem-fragalysis-2/maxwin/BulkDock/OUTPUTS/CpKRS_iter1_knitwork_impure_fragalysis.sdf;/opt/xchem-fragalysis-2/maxwin/CpKRS_FFF/hippo/filtered_merges.sdf

>  <csv_name>  (83) 
CpKRS_iter1_knitwork_impure_split1000_batch017.csv

>  <SLURM_JOB_NAME>  (83) 
BulkDock.place:CpKRS:CpKRS_iter1_knitwork_impure_split1000_batch017

>  <name>  (83) 
YESUYWASMAYRSO-UHFFFAOYSA-N

>  <fragmenstein_error>  (83) 
None

>  <score_inspiration>  (83) 
0.558791

>  <HIPPO Compound ID>  (83) 
9744

>  <scratch_subdir>  (83) 
/opt/xchem-fragalysis-2/maxwin/BulkDock/SCRATCH/304179/C9744-P14

>  <distance_score>  (83) 
0.927189

>  <Merging Algorithm>  (83) 
Knitwork Impure

>  <subsites>  (83) 
None

>  <original SMILES>  (83) 
CC(C)(CNCc1ccn[nH]1)C(F)(F)F

>  <SLURM_JOB_ID>  (83) 
304179

>  <HIPPO Pose ID>  (83) 
50420

>  <fragmenstein_mode>  (83) 
expansion

>  <ref_pdb>  (83) 
filtered_merges_wPDBs_YESUYWASMAYRSO-UHFFFAOYSA-N.pdb

$$$$
OXIAPVQVVNULLD-UHFFFAOYSA-N
     RDKit          3D

  9  9  0  0  0  0  0  0  0  0999 V2000
    5.5129  -10.2299   25.6148 N   0  0  0  0  0  0  0  0  0  0  0  0
    4.9160  -10.9074   24.8908 C   0  0  0  0  0  0  0  0  0  0  0  0
    4.2130  -11.7409   24.1203 N   0  0  0  0  0  0  0  0  0  0  0  0
    4.2887  -13.2170   24.3341 C   0  0  0  0  0  0  0  0  0  0  0  0
    3.0988  -13.6611   25.1338 C   0  0  0  0  0  0  0  0  0  0  0  0
    2.9402  -14.8732   25.8415 C   0  0  0  0  0  0  0  0  0  0  0  0
    1.6711  -14.8154   26.3638 C   0  0  0  0  0  0  0  0  0  0  0  0
    1.1682  -13.6044   26.0008 N   0  0  0  0  0  0  0  0  0  0  0  0
    1.9922  -12.8989   25.2106 N   0  0  0  0  0  0  0  0  0  0  0  0
  1  2  3  0
  2  3  1  0
  3  4  1  0
  4  5  1  0
  5  6  1  0
  6  7  2  0
  7  8  1  0
  8  9  1  0
  9  5  2  0
M  END
>  <inchikey>  (84) 
OXIAPVQVVNULLD-UHFFFAOYSA-N

>  <energy_score>  (84) 
-14.65386

>  <MoCASSIn MergeScore>  (84) 
0.368529

>  <fragmenstein_outcome>  (84) 
acceptable

>  <tags>  (84) 
BulkDock Fragalysis export;Active site iter1 merge poses;Fragmenstein placed

>  <fragmenstein_runtime>  (84) 
3.648826

>  <original ID>  (84) 
OXIAPVQVVNULLD-UHFFFAOYSA-N

>  <alias>  (84) 
None

>  <ref_mols>  (84) 
x0414a,x0421d

>  <exports>  (84) 
/opt/xchem-fragalysis-2/maxwin/BulkDock/OUTPUTS/CpKRS_iter1_knitwork_impure_split1000_batch017_304179.sdf;/opt/xchem-fragalysis-2/maxwin/BulkDock/OUTPUTS/CpKRS_iter1_knitwork_impure_fragalysis.sdf;/opt/xchem-fragalysis-2/maxwin/CpKRS_FFF/hippo/filtered_merges.sdf

>  <csv_name>  (84) 
CpKRS_iter1_knitwork_impure_split1000_batch017.csv

>  <SLURM_JOB_NAME>  (84) 
BulkDock.place:CpKRS:CpKRS_iter1_knitwork_impure_split1000_batch017

>  <name>  (84) 
OXIAPVQVVNULLD-UHFFFAOYSA-N

>  <fragmenstein_error>  (84) 
None

>  <score_inspiration>  (84) 
0.636202

>  <HIPPO Compound ID>  (84) 
9753

>  <scratch_subdir>  (84) 
/opt/xchem-fragalysis-2/maxwin/BulkDock/SCRATCH/304179/C9753-P6

>  <distance_score>  (84) 
0.850398

>  <Merging Algorithm>  (84) 
Knitwork Impure

>  <subsites>  (84) 
None

>  <original SMILES>  (84) 
N#CNCc1cc[nH]n1

>  <SLURM_JOB_ID>  (84) 
304179

>  <HIPPO Pose ID>  (84) 
50604

>  <fragmenstein_mode>  (84) 
expansion

>  <ref_pdb>  (84) 
filtered_merges_wPDBs_OXIAPVQVVNULLD-UHFFFAOYSA-N.pdb

$$$$
OXIAPVQVVNULLD-UHFFFAOYSA-N
     RDKit          3D

  9  9  0  0  0  0  0  0  0  0999 V2000
    5.1510   -9.6970   24.4986 N   0  0  0  0  0  0  0  0  0  0  0  0
    4.4709  -10.5798   24.1891 C   0  0  0  0  0  0  0  0  0  0  0  0
    3.6674  -11.6064   23.9361 N   0  0  0  0  0  0  0  0  0  0  0  0
    3.9796  -12.9928   24.3640 C   0  0  0  0  0  0  0  0  0  0  0  0
    3.0917  -13.3882   25.5137 C   0  0  0  0  0  0  0  0  0  0  0  0
    3.3836  -14.3478   26.5170 C   0  0  0  0  0  0  0  0  0  0  0  0
    2.2631  -14.3959   27.3081 C   0  0  0  0  0  0  0  0  0  0  0  0
    1.4012  -13.4816   26.7851 N   0  0  0  0  0  0  0  0  0  0  0  0
    1.8639  -12.8556   25.6890 N   0  0  0  0  0  0  0  0  0  0  0  0
  1  2  3  0
  2  3  1  0
  3  4  1  0
  4  5  1  0
  5  6  1  0
  6  7  2  0
  7  8  1  0
  8  9  1  0
  9  5  2  0
M  END
>  <inchikey>  (85) 
OXIAPVQVVNULLD-UHFFFAOYSA-N

>  <energy_score>  (85) 
-14.465584

>  <MoCASSIn MergeScore>  (85) 
0.382869

>  <fragmenstein_outcome>  (85) 
acceptable

>  <tags>  (85) 
BulkDock Fragalysis export;Active site iter1 merge poses;Fragmenstein placed

>  <fragmenstein_runtime>  (85) 
3.576775

>  <original ID>  (85) 
OXIAPVQVVNULLD-UHFFFAOYSA-N

>  <alias>  (85) 
None

>  <ref_mols>  (85) 
x0414a,x0421d

>  <exports>  (85) 
/opt/xchem-fragalysis-2/maxwin/BulkDock/OUTPUTS/CpKRS_iter1_knitwork_impure_split1000_batch017_304179.sdf;/opt/xchem-fragalysis-2/maxwin/BulkDock/OUTPUTS/CpKRS_iter1_knitwork_impure_fragalysis.sdf;/opt/xchem-fragalysis-2/maxwin/CpKRS_FFF/hippo/filtered_merges.sdf

>  <csv_name>  (85) 
CpKRS_iter1_knitwork_impure_split1000_batch017.csv

>  <SLURM_JOB_NAME>  (85) 
BulkDock.place:CpKRS:CpKRS_iter1_knitwork_impure_split1000_batch017

>  <name>  (85) 
OXIAPVQVVNULLD-UHFFFAOYSA-N

>  <fragmenstein_error>  (85) 
None

>  <score_inspiration>  (85) 
0.662071

>  <HIPPO Compound ID>  (85) 
9753

>  <scratch_subdir>  (85) 
/opt/xchem-fragalysis-2/maxwin/BulkDock/SCRATCH/304179/C9753-P14

>  <distance_score>  (85) 
0.831589

>  <Merging Algorithm>  (85) 
Knitwork Impure

>  <subsites>  (85) 
None

>  <original SMILES>  (85) 
N#CNCc1cc[nH]n1

>  <SLURM_JOB_ID>  (85) 
304179

>  <HIPPO Pose ID>  (85) 
50612

>  <fragmenstein_mode>  (85) 
expansion

>  <ref_pdb>  (85) 
filtered_merges_wPDBs_OXIAPVQVVNULLD-UHFFFAOYSA-N.pdb

$$$$
LOJZGVKHBJWXMS-YFKPBYRVSA-N
     RDKit          3D

 12 12  0  0  0  0  0  0  0  0999 V2000
    6.9790   -8.1031   24.2856 N   0  0  0  0  0  0  0  0  0  0  0  0
    6.4846   -9.4437   24.6342 C   0  0  0  0  0  0  0  0  0  0  0  0
    5.0022   -9.4487   24.9422 C   0  0  2  0  0  0  0  0  0  0  0  0
    4.5963  -10.6515   25.6488 N   0  0  0  0  0  0  0  0  0  0  0  0
    3.7671  -10.7135   26.7273 C   0  0  0  0  0  0  0  0  0  0  0  0
    3.5365  -12.0451   26.9624 C   0  0  0  0  0  0  0  0  0  0  0  0
    4.3518  -12.7144   26.0343 C   0  0  0  0  0  0  0  0  0  0  0  0
    5.0414  -11.8664   25.2639 N   0  0  0  0  0  0  0  0  0  0  0  0
    4.2708   -9.3500   23.6295 C   0  0  0  0  0  0  0  0  0  0  0  0
    4.8045   -8.3883   22.8243 F   0  0  0  0  0  0  0  0  0  0  0  0
    2.9770   -8.9876   23.7920 F   0  0  0  0  0  0  0  0  0  0  0  0
    4.3025  -10.4895   22.9080 F   0  0  0  0  0  0  0  0  0  0  0  0
  1  2  1  0
  3  2  1  6
  3  4  1  0
  4  5  1  0
  5  6  2  0
  6  7  1  0
  7  8  2  0
  3  9  1  0
  9 10  1  0
  9 11  1  0
  9 12  1  0
  8  4  1  0
M  END
>  <inchikey>  (86) 
LOJZGVKHBJWXMS-YFKPBYRVSA-N

>  <energy_score>  (86) 
-14.50207

>  <MoCASSIn MergeScore>  (86) 
0.201995

>  <fragmenstein_outcome>  (86) 
acceptable

>  <tags>  (86) 
BulkDock Fragalysis export;Active site iter1 merge poses;Fragmenstein placed

>  <fragmenstein_runtime>  (86) 
5.936353

>  <original ID>  (86) 
LOJZGVKHBJWXMS-YFKPBYRVSA-N

>  <alias>  (86) 
None

>  <ref_mols>  (86) 
x0414a,x0421b

>  <exports>  (86) 
/opt/xchem-fragalysis-2/maxwin/BulkDock/OUTPUTS/CpKRS_iter1_knitwork_impure_split1000_batch014_304176.sdf;/opt/xchem-fragalysis-2/maxwin/BulkDock/OUTPUTS/CpKRS_iter1_knitwork_impure_fragalysis.sdf;/opt/xchem-fragalysis-2/maxwin/CpKRS_FFF/hippo/filtered_merges.sdf

>  <csv_name>  (86) 
CpKRS_iter1_knitwork_impure_split1000_batch014.csv

>  <SLURM_JOB_NAME>  (86) 
BulkDock.place:CpKRS:CpKRS_iter1_knitwork_impure_split1000_batch014

>  <name>  (86) 
LOJZGVKHBJWXMS-YFKPBYRVSA-N

>  <fragmenstein_error>  (86) 
None

>  <score_inspiration>  (86) 
0.41932

>  <HIPPO Compound ID>  (86) 
9766

>  <scratch_subdir>  (86) 
/opt/xchem-fragalysis-2/maxwin/BulkDock/SCRATCH/304176/C9766-P6

>  <distance_score>  (86) 
0.961487

>  <Merging Algorithm>  (86) 
Knitwork Impure

>  <subsites>  (86) 
None

>  <original SMILES>  (86) 
NC[C@H](n1cccn1)C(F)(F)F

>  <SLURM_JOB_ID>  (86) 
304176

>  <HIPPO Pose ID>  (86) 
50674

>  <fragmenstein_mode>  (86) 
expansion

>  <ref_pdb>  (86) 
filtered_merges_wPDBs_LOJZGVKHBJWXMS-YFKPBYRVSA-N.pdb

$$$$
PSSMVONWKTXPBC-CIUDSAMLSA-N
     RDKit          3D

 14 14  0  0  0  0  0  0  0  0999 V2000
    5.4297  -13.6211   25.6433 C   0  0  0  0  0  0  0  0  0  0  0  0
    4.1754  -13.2005   24.8819 C   0  0  2  0  0  0  0  0  0  0  0  0
    4.0410  -11.7353   24.8747 N   0  0  0  0  0  0  0  0  0  0  0  0
    4.7221  -11.0748   23.7489 C   0  0  1  0  0  0  0  0  0  0  0  0
    3.9398  -11.3561   22.4587 C   0  0  0  0  0  0  0  0  0  0  0  0
    4.8325   -9.5438   23.9966 C   0  0  1  0  0  0  0  0  0  0  0  0
    5.7261   -9.2103   25.1863 C   0  0  0  0  0  0  0  0  0  0  0  0
    5.3447   -8.8813   22.7856 C   0  0  0  0  0  0  0  0  0  0  0  0
    5.6612   -8.4213   21.7708 N   0  0  0  0  0  0  0  0  0  0  0  0
    2.9574  -13.7876   25.5104 C   0  0  0  0  0  0  0  0  0  0  0  0
    2.6519  -15.0679   25.9184 C   0  0  0  0  0  0  0  0  0  0  0  0
    1.3404  -14.9871   26.4183 C   0  0  0  0  0  0  0  0  0  0  0  0
    0.8316  -13.7570   26.3231 N   0  0  0  0  0  0  0  0  0  0  0  0
    1.8330  -13.0505   25.7710 N   0  0  0  0  0  0  0  0  0  0  0  0
  2  1  1  1
  2  3  1  0
  3  4  1  0
  4  5  1  6
  4  6  1  0
  6  7  1  1
  6  8  1  0
  8  9  3  0
  2 10  1  0
 10 11  2  0
 11 12  1  0
 12 13  2  0
 13 14  1  0
 14 10  1  0
M  END
>  <inchikey>  (87) 
PSSMVONWKTXPBC-CIUDSAMLSA-N

>  <energy_score>  (87) 
-40.826693

>  <MoCASSIn MergeScore>  (87) 
0.371698

>  <fragmenstein_outcome>  (87) 
acceptable

>  <tags>  (87) 
BulkDock Fragalysis export;Active site iter1 merge poses;Fragmenstein placed

>  <fragmenstein_runtime>  (87) 
4.399926

>  <original ID>  (87) 
PSSMVONWKTXPBC-CIUDSAMLSA-N

>  <alias>  (87) 
None

>  <ref_mols>  (87) 
x0414a,x0421b

>  <exports>  (87) 
/opt/xchem-fragalysis-2/maxwin/BulkDock/OUTPUTS/CpKRS_iter1_knitwork_impure_split1000_batch014_304176.sdf;/opt/xchem-fragalysis-2/maxwin/BulkDock/OUTPUTS/CpKRS_iter1_knitwork_impure_fragalysis.sdf;/opt/xchem-fragalysis-2/maxwin/CpKRS_FFF/hippo/filtered_merges.sdf

>  <csv_name>  (87) 
CpKRS_iter1_knitwork_impure_split1000_batch014.csv

>  <SLURM_JOB_NAME>  (87) 
BulkDock.place:CpKRS:CpKRS_iter1_knitwork_impure_split1000_batch014

>  <name>  (87) 
PSSMVONWKTXPBC-CIUDSAMLSA-N

>  <fragmenstein_error>  (87) 
None

>  <score_inspiration>  (87) 
0.536745

>  <HIPPO Compound ID>  (87) 
9778

>  <scratch_subdir>  (87) 
/opt/xchem-fragalysis-2/maxwin/BulkDock/SCRATCH/304176/C9778-P6

>  <distance_score>  (87) 
0.944458

>  <Merging Algorithm>  (87) 
Knitwork Impure

>  <subsites>  (87) 
None

>  <original SMILES>  (87) 
C[C@H](N[C@@H](C)[C@@H](C)C#N)c1ccn[nH]1

>  <SLURM_JOB_ID>  (87) 
304176

>  <HIPPO Pose ID>  (87) 
50936

>  <fragmenstein_mode>  (87) 
expansion

>  <ref_pdb>  (87) 
filtered_merges_wPDBs_PSSMVONWKTXPBC-CIUDSAMLSA-N.pdb

$$$$
PSSMVONWKTXPBC-CIUDSAMLSA-N
     RDKit          3D

 14 14  0  0  0  0  0  0  0  0999 V2000
    5.0492  -13.8579   24.2328 C   0  0  0  0  0  0  0  0  0  0  0  0
    3.7278  -13.1042   24.4216 C   0  0  2  0  0  0  0  0  0  0  0  0
    3.8894  -11.6395   24.5143 N   0  0  0  0  0  0  0  0  0  0  0  0
    4.6840  -10.9961   23.4494 C   0  0  1  0  0  0  0  0  0  0  0  0
    4.0673  -11.3219   22.0821 C   0  0  0  0  0  0  0  0  0  0  0  0
    4.7552   -9.4493   23.6617 C   0  0  1  0  0  0  0  0  0  0  0  0
    5.6083   -9.0006   24.8438 C   0  0  0  0  0  0  0  0  0  0  0  0
    5.2704   -8.8010   22.4504 C   0  0  0  0  0  0  0  0  0  0  0  0
    5.5820   -8.3268   21.4427 N   0  0  0  0  0  0  0  0  0  0  0  0
    2.9866  -13.6127   25.6221 C   0  0  0  0  0  0  0  0  0  0  0  0
    3.1906  -14.6985   26.4541 C   0  0  0  0  0  0  0  0  0  0  0  0
    2.0874  -14.7140   27.3203 C   0  0  0  0  0  0  0  0  0  0  0  0
    1.2307  -13.7283   27.0619 N   0  0  0  0  0  0  0  0  0  0  0  0
    1.8391  -13.0207   26.0925 N   0  0  0  0  0  0  0  0  0  0  0  0
  2  1  1  1
  2  3  1  0
  3  4  1  0
  4  5  1  6
  4  6  1  0
  6  7  1  1
  6  8  1  0
  8  9  3  0
  2 10  1  0
 10 11  2  0
 11 12  1  0
 12 13  2  0
 13 14  1  0
 14 10  1  0
M  END
>  <inchikey>  (88) 
PSSMVONWKTXPBC-CIUDSAMLSA-N

>  <energy_score>  (88) 
-37.563535

>  <MoCASSIn MergeScore>  (88) 
0.370493

>  <fragmenstein_outcome>  (88) 
acceptable

>  <tags>  (88) 
BulkDock Fragalysis export;Active site iter1 merge poses;Fragmenstein placed

>  <fragmenstein_runtime>  (88) 
4.474109

>  <original ID>  (88) 
PSSMVONWKTXPBC-CIUDSAMLSA-N

>  <alias>  (88) 
None

>  <ref_mols>  (88) 
x0414a,x0421b

>  <exports>  (88) 
/opt/xchem-fragalysis-2/maxwin/BulkDock/OUTPUTS/CpKRS_iter1_knitwork_impure_split1000_batch014_304176.sdf;/opt/xchem-fragalysis-2/maxwin/BulkDock/OUTPUTS/CpKRS_iter1_knitwork_impure_fragalysis.sdf;/opt/xchem-fragalysis-2/maxwin/CpKRS_FFF/hippo/filtered_merges.sdf

>  <csv_name>  (88) 
CpKRS_iter1_knitwork_impure_split1000_batch014.csv

>  <SLURM_JOB_NAME>  (88) 
BulkDock.place:CpKRS:CpKRS_iter1_knitwork_impure_split1000_batch014

>  <name>  (88) 
PSSMVONWKTXPBC-CIUDSAMLSA-N

>  <fragmenstein_error>  (88) 
None

>  <score_inspiration>  (88) 
0.53619

>  <HIPPO Compound ID>  (88) 
9778

>  <scratch_subdir>  (88) 
/opt/xchem-fragalysis-2/maxwin/BulkDock/SCRATCH/304176/C9778-P12

>  <distance_score>  (88) 
0.886015

>  <Merging Algorithm>  (88) 
Knitwork Impure

>  <subsites>  (88) 
None

>  <original SMILES>  (88) 
C[C@H](N[C@@H](C)[C@@H](C)C#N)c1ccn[nH]1

>  <SLURM_JOB_ID>  (88) 
304176

>  <HIPPO Pose ID>  (88) 
50945

>  <fragmenstein_mode>  (88) 
expansion

>  <ref_pdb>  (88) 
filtered_merges_wPDBs_PSSMVONWKTXPBC-CIUDSAMLSA-N.pdb

$$$$
MELHIBOTLZEYDC-UHFFFAOYSA-N
     RDKit          3D

 12 12  0  0  0  0  0  0  0  0999 V2000
    6.0410   -8.0144   23.8186 C   0  0  0  0  0  0  0  0  0  0  0  0
    5.2365   -8.9541   24.3532 C   0  0  0  0  0  0  0  0  0  0  0  0
    3.9607   -9.3437   23.6606 C   0  0  0  0  0  0  0  0  0  0  0  0
    3.9283  -10.7355   23.2835 N   0  0  0  0  0  0  0  0  0  0  0  0
    4.8993  -11.1102   22.2749 C   0  0  0  0  0  0  0  0  0  0  0  0
    4.9152  -12.6212   22.1617 C   0  0  0  0  0  0  0  0  0  0  0  0
    5.6134   -9.6238   25.6618 C   0  0  0  0  0  0  0  0  0  0  0  0
    4.8904  -10.8379   26.0348 N   0  0  0  0  0  0  0  0  0  0  0  0
    3.7032  -10.8938   26.7078 C   0  0  0  0  0  0  0  0  0  0  0  0
    3.4073  -12.2245   26.8586 C   0  0  0  0  0  0  0  0  0  0  0  0
    4.5073  -12.8950   26.2932 C   0  0  0  0  0  0  0  0  0  0  0  0
    5.4477  -12.0549   25.8486 N   0  0  0  0  0  0  0  0  0  0  0  0
  1  2  2  0
  2  3  1  0
  3  4  1  0
  4  5  1  0
  5  6  1  0
  2  7  1  0
  7  8  1  0
  8  9  1  0
  9 10  2  0
 10 11  1  0
 11 12  2  0
 12  8  1  0
M  END
>  <inchikey>  (89) 
MELHIBOTLZEYDC-UHFFFAOYSA-N

>  <energy_score>  (89) 
-19.513027

>  <MoCASSIn MergeScore>  (89) 
0.223518

>  <fragmenstein_outcome>  (89) 
acceptable

>  <tags>  (89) 
BulkDock Fragalysis export;Active site iter1 merge poses;Fragmenstein placed

>  <fragmenstein_runtime>  (89) 
4.87185

>  <original ID>  (89) 
MELHIBOTLZEYDC-UHFFFAOYSA-N

>  <alias>  (89) 
None

>  <ref_mols>  (89) 
x0414a,x0421b

>  <exports>  (89) 
/opt/xchem-fragalysis-2/maxwin/BulkDock/OUTPUTS/CpKRS_iter1_knitwork_impure_split1000_batch014_304176.sdf;/opt/xchem-fragalysis-2/maxwin/BulkDock/OUTPUTS/CpKRS_iter1_knitwork_impure_fragalysis.sdf;/opt/xchem-fragalysis-2/maxwin/CpKRS_FFF/hippo/filtered_merges.sdf

>  <csv_name>  (89) 
CpKRS_iter1_knitwork_impure_split1000_batch014.csv

>  <SLURM_JOB_NAME>  (89) 
BulkDock.place:CpKRS:CpKRS_iter1_knitwork_impure_split1000_batch014

>  <name>  (89) 
MELHIBOTLZEYDC-UHFFFAOYSA-N

>  <fragmenstein_error>  (89) 
None

>  <score_inspiration>  (89) 
0.420454

>  <HIPPO Compound ID>  (89) 
9784

>  <scratch_subdir>  (89) 
/opt/xchem-fragalysis-2/maxwin/BulkDock/SCRATCH/304176/C9784-P6

>  <distance_score>  (89) 
0.948559

>  <Merging Algorithm>  (89) 
Knitwork Impure

>  <subsites>  (89) 
None

>  <original SMILES>  (89) 
C=C(CNCC)Cn1cccn1

>  <SLURM_JOB_ID>  (89) 
304176

>  <HIPPO Pose ID>  (89) 
51065

>  <fragmenstein_mode>  (89) 
expansion

>  <ref_pdb>  (89) 
filtered_merges_wPDBs_MELHIBOTLZEYDC-UHFFFAOYSA-N.pdb

$$$$
PSSMVONWKTXPBC-CIUDSAMLSA-N
     RDKit          3D

 14 14  0  0  0  0  0  0  0  0999 V2000
    5.1707  -14.0397   25.0394 C   0  0  0  0  0  0  0  0  0  0  0  0
    3.8790  -13.3114   24.6741 C   0  0  2  0  0  0  0  0  0  0  0  0
    4.0311  -11.8520   24.7392 N   0  0  0  0  0  0  0  0  0  0  0  0
    4.8046  -11.2179   23.6560 C   0  0  1  0  0  0  0  0  0  0  0  0
    4.3089  -11.6542   22.2708 C   0  0  0  0  0  0  0  0  0  0  0  0
    4.7532   -9.6732   23.8441 C   0  0  1  0  0  0  0  0  0  0  0  0
    5.5484   -9.2233   25.0731 C   0  0  0  0  0  0  0  0  0  0  0  0
    5.2546   -8.9855   22.6434 C   0  0  0  0  0  0  0  0  0  0  0  0
    5.5672   -8.5018   21.6381 N   0  0  0  0  0  0  0  0  0  0  0  0
    2.7495  -13.7041   25.5684 C   0  0  0  0  0  0  0  0  0  0  0  0
    2.3441  -14.9187   26.0779 C   0  0  0  0  0  0  0  0  0  0  0  0
    1.1431  -14.6449   26.7551 C   0  0  0  0  0  0  0  0  0  0  0  0
    0.8042  -13.3561   26.6978 N   0  0  0  0  0  0  0  0  0  0  0  0
    1.7970  -12.8082   25.9780 N   0  0  0  0  0  0  0  0  0  0  0  0
  2  1  1  1
  2  3  1  0
  3  4  1  0
  4  5  1  6
  4  6  1  0
  6  7  1  1
  6  8  1  0
  8  9  3  0
  2 10  1  0
 10 11  2  0
 11 12  1  0
 12 13  2  0
 13 14  1  0
 14 10  1  0
M  END
>  <inchikey>  (90) 
PSSMVONWKTXPBC-CIUDSAMLSA-N

>  <energy_score>  (90) 
-39.162506

>  <MoCASSIn MergeScore>  (90) 
0.362926

>  <fragmenstein_outcome>  (90) 
acceptable

>  <tags>  (90) 
BulkDock Fragalysis export;Active site iter1 merge poses;Fragmenstein placed

>  <fragmenstein_runtime>  (90) 
4.43086

>  <original ID>  (90) 
PSSMVONWKTXPBC-CIUDSAMLSA-N

>  <alias>  (90) 
None

>  <ref_mols>  (90) 
x0414a,x0421d

>  <exports>  (90) 
/opt/xchem-fragalysis-2/maxwin/BulkDock/OUTPUTS/CpKRS_iter1_knitwork_impure_split1000_batch017_304179.sdf;/opt/xchem-fragalysis-2/maxwin/BulkDock/OUTPUTS/CpKRS_iter1_knitwork_impure_fragalysis.sdf;/opt/xchem-fragalysis-2/maxwin/CpKRS_FFF/hippo/filtered_merges.sdf

>  <csv_name>  (90) 
CpKRS_iter1_knitwork_impure_split1000_batch017.csv

>  <SLURM_JOB_NAME>  (90) 
BulkDock.place:CpKRS:CpKRS_iter1_knitwork_impure_split1000_batch017

>  <name>  (90) 
PSSMVONWKTXPBC-CIUDSAMLSA-N

>  <fragmenstein_error>  (90) 
None

>  <score_inspiration>  (90) 
0.536626

>  <HIPPO Compound ID>  (90) 
9778

>  <scratch_subdir>  (90) 
/opt/xchem-fragalysis-2/maxwin/BulkDock/SCRATCH/304179/C9778-P6

>  <distance_score>  (90) 
0.941756

>  <Merging Algorithm>  (90) 
Knitwork Impure

>  <subsites>  (90) 
None

>  <original SMILES>  (90) 
C[C@H](N[C@@H](C)[C@@H](C)C#N)c1ccn[nH]1

>  <SLURM_JOB_ID>  (90) 
304179

>  <HIPPO Pose ID>  (90) 
51120

>  <fragmenstein_mode>  (90) 
expansion

>  <ref_pdb>  (90) 
filtered_merges_wPDBs_PSSMVONWKTXPBC-CIUDSAMLSA-N.pdb

$$$$
PSSMVONWKTXPBC-CIUDSAMLSA-N
     RDKit          3D

 14 14  0  0  0  0  0  0  0  0999 V2000
    5.1507  -13.6656   24.7880 C   0  0  0  0  0  0  0  0  0  0  0  0
    3.7882  -13.0281   24.5478 C   0  0  2  0  0  0  0  0  0  0  0  0
    3.8313  -11.5598   24.4429 N   0  0  0  0  0  0  0  0  0  0  0  0
    4.7615  -11.0162   23.4361 C   0  0  1  0  0  0  0  0  0  0  0  0
    4.3901  -11.5464   22.0478 C   0  0  0  0  0  0  0  0  0  0  0  0
    4.7329   -9.4610   23.5102 C   0  0  1  0  0  0  0  0  0  0  0  0
    5.5620   -8.8922   24.6620 C   0  0  0  0  0  0  0  0  0  0  0  0
    5.2012   -8.8734   22.2551 C   0  0  0  0  0  0  0  0  0  0  0  0
    5.4869   -8.4576   21.2149 N   0  0  0  0  0  0  0  0  0  0  0  0
    2.8001  -13.3751   25.6112 C   0  0  0  0  0  0  0  0  0  0  0  0
    2.8683  -14.0411   26.8157 C   0  0  0  0  0  0  0  0  0  0  0  0
    1.5461  -14.0629   27.2924 C   0  0  0  0  0  0  0  0  0  0  0  0
    0.6889  -13.4744   26.4521 N   0  0  0  0  0  0  0  0  0  0  0  0
    1.4782  -13.0726   25.4399 N   0  0  0  0  0  0  0  0  0  0  0  0
  2  1  1  1
  2  3  1  0
  3  4  1  0
  4  5  1  6
  4  6  1  0
  6  7  1  1
  6  8  1  0
  8  9  3  0
  2 10  1  0
 10 11  2  0
 11 12  1  0
 12 13  2  0
 13 14  1  0
 14 10  1  0
M  END
>  <inchikey>  (91) 
PSSMVONWKTXPBC-CIUDSAMLSA-N

>  <energy_score>  (91) 
-37.209381

>  <MoCASSIn MergeScore>  (91) 
0.370074

>  <fragmenstein_outcome>  (91) 
acceptable

>  <tags>  (91) 
BulkDock Fragalysis export;Active site iter1 merge poses;Fragmenstein placed

>  <fragmenstein_runtime>  (91) 
4.43184

>  <original ID>  (91) 
PSSMVONWKTXPBC-CIUDSAMLSA-N

>  <alias>  (91) 
None

>  <ref_mols>  (91) 
x0414a,x0421d

>  <exports>  (91) 
/opt/xchem-fragalysis-2/maxwin/BulkDock/OUTPUTS/CpKRS_iter1_knitwork_impure_split1000_batch017_304179.sdf;/opt/xchem-fragalysis-2/maxwin/BulkDock/OUTPUTS/CpKRS_iter1_knitwork_impure_fragalysis.sdf;/opt/xchem-fragalysis-2/maxwin/CpKRS_FFF/hippo/filtered_merges.sdf

>  <csv_name>  (91) 
CpKRS_iter1_knitwork_impure_split1000_batch017.csv

>  <SLURM_JOB_NAME>  (91) 
BulkDock.place:CpKRS:CpKRS_iter1_knitwork_impure_split1000_batch017

>  <name>  (91) 
PSSMVONWKTXPBC-CIUDSAMLSA-N

>  <fragmenstein_error>  (91) 
None

>  <score_inspiration>  (91) 
0.542572

>  <HIPPO Compound ID>  (91) 
9778

>  <scratch_subdir>  (91) 
/opt/xchem-fragalysis-2/maxwin/BulkDock/SCRATCH/304179/C9778-P14

>  <distance_score>  (91) 
0.870681

>  <Merging Algorithm>  (91) 
Knitwork Impure

>  <subsites>  (91) 
None

>  <original SMILES>  (91) 
C[C@H](N[C@@H](C)[C@@H](C)C#N)c1ccn[nH]1

>  <SLURM_JOB_ID>  (91) 
304179

>  <HIPPO Pose ID>  (91) 
51136

>  <fragmenstein_mode>  (91) 
expansion

>  <ref_pdb>  (91) 
filtered_merges_wPDBs_PSSMVONWKTXPBC-CIUDSAMLSA-N.pdb

$$$$
RDDZRGGIERFNOR-DTWKUNHWSA-N
     RDKit          3D

 12 12  0  0  0  0  0  0  0  0999 V2000
    5.2954  -11.5140   21.6385 C   0  0  0  0  0  0  0  0  0  0  0  0
    5.0792  -10.3844   21.9763 C   0  0  0  0  0  0  0  0  0  0  0  0
    4.6691   -9.1166   22.5916 C   0  0  2  0  0  0  0  0  0  0  0  0
    5.7766   -8.0854   22.5834 C   0  0  0  0  0  0  0  0  0  0  0  0
    4.1020   -9.4287   23.9953 C   0  0  2  0  0  0  0  0  0  0  0  0
    3.2051   -8.3274   24.4159 N   0  0  0  0  0  0  0  0  0  0  0  0
    5.1916   -9.7738   25.0405 C   0  0  0  0  0  0  0  0  0  0  0  0
    4.7251  -10.8574   25.8862 N   0  0  0  0  0  0  0  0  0  0  0  0
    3.9115  -10.7341   26.9696 C   0  0  0  0  0  0  0  0  0  0  0  0
    3.4310  -11.9948   27.2195 C   0  0  0  0  0  0  0  0  0  0  0  0
    4.0988  -12.8234   26.2988 C   0  0  0  0  0  0  0  0  0  0  0  0
    4.9118  -12.1316   25.4949 N   0  0  0  0  0  0  0  0  0  0  0  0
  1  2  3  0
  2  3  1  0
  3  4  1  1
  3  5  1  0
  5  6  1  1
  5  7  1  0
  7  8  1  0
  8  9  1  0
  9 10  2  0
 10 11  1  0
 11 12  2  0
 12  8  1  0
M  END
>  <inchikey>  (92) 
RDDZRGGIERFNOR-DTWKUNHWSA-N

>  <energy_score>  (92) 
-22.044577

>  <MoCASSIn MergeScore>  (92) 
0.281037

>  <fragmenstein_outcome>  (92) 
acceptable

>  <tags>  (92) 
BulkDock Fragalysis export;Active site iter1 merge poses;Fragmenstein placed

>  <fragmenstein_runtime>  (92) 
4.744886

>  <original ID>  (92) 
RDDZRGGIERFNOR-DTWKUNHWSA-N

>  <alias>  (92) 
None

>  <ref_mols>  (92) 
x0414a,x0421d

>  <exports>  (92) 
/opt/xchem-fragalysis-2/maxwin/BulkDock/OUTPUTS/CpKRS_iter1_knitwork_impure_split1000_batch017_304179.sdf;/opt/xchem-fragalysis-2/maxwin/BulkDock/OUTPUTS/CpKRS_iter1_knitwork_impure_fragalysis.sdf;/opt/xchem-fragalysis-2/maxwin/CpKRS_FFF/hippo/filtered_merges.sdf

>  <csv_name>  (92) 
CpKRS_iter1_knitwork_impure_split1000_batch017.csv

>  <SLURM_JOB_NAME>  (92) 
BulkDock.place:CpKRS:CpKRS_iter1_knitwork_impure_split1000_batch017

>  <name>  (92) 
RDDZRGGIERFNOR-DTWKUNHWSA-N

>  <fragmenstein_error>  (92) 
None

>  <score_inspiration>  (92) 
0.48211

>  <HIPPO Compound ID>  (92) 
9782

>  <scratch_subdir>  (92) 
/opt/xchem-fragalysis-2/maxwin/BulkDock/SCRATCH/304179/C9782-P6

>  <distance_score>  (92) 
0.981857

>  <Merging Algorithm>  (92) 
Knitwork Impure

>  <subsites>  (92) 
None

>  <original SMILES>  (92) 
C#C[C@H](C)[C@H](N)Cn1cccn1

>  <SLURM_JOB_ID>  (92) 
304179

>  <HIPPO Pose ID>  (92) 
51208

>  <fragmenstein_mode>  (92) 
expansion

>  <ref_pdb>  (92) 
filtered_merges_wPDBs_RDDZRGGIERFNOR-DTWKUNHWSA-N.pdb

$$$$
JIMJAAIBHREIKZ-UHFFFAOYSA-N
     RDKit          3D

 13 13  0  0  0  0  0  0  0  0999 V2000
    5.3444   -8.6871   24.7284 C   0  0  0  0  0  0  0  0  0  0  0  0
    5.3264   -9.5179   23.6731 C   0  0  0  0  0  0  0  0  0  0  0  0
    5.6976   -9.0024   22.3112 C   0  0  0  0  0  0  0  0  0  0  0  0
    4.5477   -9.1181   21.3406 C   0  0  0  0  0  0  0  0  0  0  0  0
    4.9963  -11.0021   23.7494 C   0  0  0  0  0  0  0  0  0  0  0  0
    3.7582  -11.3486   24.4613 N   0  0  0  0  0  0  0  0  0  0  0  0
    2.5840  -10.8241   23.7569 C   0  0  0  0  0  0  0  0  0  0  0  0
    3.6635  -12.8365   24.5358 C   0  0  0  0  0  0  0  0  0  0  0  0
    2.8059  -13.3259   25.6810 C   0  0  0  0  0  0  0  0  0  0  0  0
    3.2088  -14.2573   26.6773 C   0  0  0  0  0  0  0  0  0  0  0  0
    2.1023  -14.4540   27.4643 C   0  0  0  0  0  0  0  0  0  0  0  0
    1.1358  -13.6537   26.9420 N   0  0  0  0  0  0  0  0  0  0  0  0
    1.5105  -12.9897   25.8389 N   0  0  0  0  0  0  0  0  0  0  0  0
  1  2  2  0
  2  3  1  0
  3  4  1  0
  2  5  1  0
  5  6  1  0
  6  7  1  0
  6  8  1  0
  8  9  1  0
  9 10  1  0
 10 11  2  0
 11 12  1  0
 12 13  1  0
 13  9  2  0
M  END
>  <inchikey>  (93) 
JIMJAAIBHREIKZ-UHFFFAOYSA-N

>  <energy_score>  (93) 
-30.348207

>  <MoCASSIn MergeScore>  (93) 
0.367326

>  <fragmenstein_outcome>  (93) 
acceptable

>  <tags>  (93) 
BulkDock Fragalysis export;Active site iter1 merge poses;Fragmenstein placed

>  <fragmenstein_runtime>  (93) 
7.467674

>  <original ID>  (93) 
JIMJAAIBHREIKZ-UHFFFAOYSA-N

>  <alias>  (93) 
None

>  <ref_mols>  (93) 
x0414a,x0421d

>  <exports>  (93) 
/opt/xchem-fragalysis-2/maxwin/BulkDock/OUTPUTS/CpKRS_iter1_knitwork_impure_split1000_batch017_304179.sdf;/opt/xchem-fragalysis-2/maxwin/BulkDock/OUTPUTS/CpKRS_iter1_knitwork_impure_fragalysis.sdf;/opt/xchem-fragalysis-2/maxwin/CpKRS_FFF/hippo/filtered_merges.sdf

>  <csv_name>  (93) 
CpKRS_iter1_knitwork_impure_split1000_batch017.csv

>  <SLURM_JOB_NAME>  (93) 
BulkDock.place:CpKRS:CpKRS_iter1_knitwork_impure_split1000_batch017

>  <name>  (93) 
JIMJAAIBHREIKZ-UHFFFAOYSA-N

>  <fragmenstein_error>  (93) 
None

>  <score_inspiration>  (93) 
0.547771

>  <HIPPO Compound ID>  (93) 
9789

>  <scratch_subdir>  (93) 
/opt/xchem-fragalysis-2/maxwin/BulkDock/SCRATCH/304179/C9789-P14

>  <distance_score>  (93) 
0.845137

>  <Merging Algorithm>  (93) 
Knitwork Impure

>  <subsites>  (93) 
None

>  <original SMILES>  (93) 
C=C(CC)CN(C)Cc1cc[nH]n1

>  <SLURM_JOB_ID>  (93) 
304179

>  <HIPPO Pose ID>  (93) 
51329

>  <fragmenstein_mode>  (93) 
expansion

>  <ref_pdb>  (93) 
filtered_merges_wPDBs_JIMJAAIBHREIKZ-UHFFFAOYSA-N.pdb

$$$$
YMARXTBGXAJPTA-UHFFFAOYSA-N
     RDKit          3D

 12 12  0  0  0  0  0  0  0  0999 V2000
    5.9154   -8.5851   23.2187 F   0  0  0  0  0  0  0  0  0  0  0  0
    5.0413   -9.1917   24.0567 C   0  0  0  0  0  0  0  0  0  0  0  0
    5.4026   -8.8810   25.3239 F   0  0  0  0  0  0  0  0  0  0  0  0
    3.8236   -8.6490   23.8191 F   0  0  0  0  0  0  0  0  0  0  0  0
    5.0662  -10.7150   23.8586 C   0  0  0  0  0  0  0  0  0  0  0  0
    3.9259  -11.4714   24.3936 N   0  0  0  0  0  0  0  0  0  0  0  0
    4.2751  -12.8649   24.6926 C   0  0  0  0  0  0  0  0  0  0  0  0
    3.1406  -13.5369   25.4138 C   0  0  0  0  0  0  0  0  0  0  0  0
    2.8983  -14.9280   25.5051 C   0  0  0  0  0  0  0  0  0  0  0  0
    1.7542  -15.0436   26.2552 C   0  0  0  0  0  0  0  0  0  0  0  0
    1.4004  -13.7740   26.5942 N   0  0  0  0  0  0  0  0  0  0  0  0
    2.2273  -12.8372   26.1089 N   0  0  0  0  0  0  0  0  0  0  0  0
  1  2  1  0
  2  3  1  0
  2  4  1  0
  2  5  1  0
  5  6  1  0
  6  7  1  0
  7  8  1  0
  8  9  1  0
  9 10  2  0
 10 11  1  0
 11 12  1  0
 12  8  2  0
M  END
>  <inchikey>  (94) 
YMARXTBGXAJPTA-UHFFFAOYSA-N

>  <energy_score>  (94) 
-18.016181

>  <MoCASSIn MergeScore>  (94) 
0.427999

>  <fragmenstein_outcome>  (94) 
acceptable

>  <tags>  (94) 
BulkDock Fragalysis export;Active site iter1 merge poses;Fragmenstein placed

>  <fragmenstein_runtime>  (94) 
4.38231

>  <original ID>  (94) 
YMARXTBGXAJPTA-UHFFFAOYSA-N

>  <alias>  (94) 
None

>  <ref_mols>  (94) 
x0414a,x0421b

>  <exports>  (94) 
/opt/xchem-fragalysis-2/maxwin/BulkDock/OUTPUTS/CpKRS_iter1_knitwork_impure_split1000_batch014_304176.sdf;/opt/xchem-fragalysis-2/maxwin/BulkDock/OUTPUTS/CpKRS_iter1_knitwork_impure_fragalysis.sdf;/opt/xchem-fragalysis-2/maxwin/CpKRS_FFF/hippo/filtered_merges.sdf

>  <csv_name>  (94) 
CpKRS_iter1_knitwork_impure_split1000_batch014.csv

>  <SLURM_JOB_NAME>  (94) 
BulkDock.place:CpKRS:CpKRS_iter1_knitwork_impure_split1000_batch014

>  <name>  (94) 
YMARXTBGXAJPTA-UHFFFAOYSA-N

>  <fragmenstein_error>  (94) 
None

>  <score_inspiration>  (94) 
0.646884

>  <HIPPO Compound ID>  (94) 
9799

>  <scratch_subdir>  (94) 
/opt/xchem-fragalysis-2/maxwin/BulkDock/SCRATCH/304176/C9799-P6

>  <distance_score>  (94) 
0.930287

>  <Merging Algorithm>  (94) 
Knitwork Impure

>  <subsites>  (94) 
None

>  <original SMILES>  (94) 
FC(F)(F)CNCc1cc[nH]n1

>  <SLURM_JOB_ID>  (94) 
304176

>  <HIPPO Pose ID>  (94) 
51370

>  <fragmenstein_mode>  (94) 
expansion

>  <ref_pdb>  (94) 
filtered_merges_wPDBs_YMARXTBGXAJPTA-UHFFFAOYSA-N.pdb

$$$$
YMARXTBGXAJPTA-UHFFFAOYSA-N
     RDKit          3D

 12 12  0  0  0  0  0  0  0  0999 V2000
    5.9120   -8.6515   23.0055 F   0  0  0  0  0  0  0  0  0  0  0  0
    5.0650   -9.2644   23.8643 C   0  0  0  0  0  0  0  0  0  0  0  0
    5.5492   -9.0743   25.1161 F   0  0  0  0  0  0  0  0  0  0  0  0
    3.8779   -8.6128   23.7819 F   0  0  0  0  0  0  0  0  0  0  0  0
    4.9397  -10.7661   23.5506 C   0  0  0  0  0  0  0  0  0  0  0  0
    3.8724  -11.4648   24.2732 N   0  0  0  0  0  0  0  0  0  0  0  0
    4.0025  -12.9285   24.2419 C   0  0  0  0  0  0  0  0  0  0  0  0
    3.0587  -13.5257   25.2510 C   0  0  0  0  0  0  0  0  0  0  0  0
    3.3617  -14.4494   26.2821 C   0  0  0  0  0  0  0  0  0  0  0  0
    2.1940  -14.5867   26.9933 C   0  0  0  0  0  0  0  0  0  0  0  0
    1.2910  -13.7608   26.3922 N   0  0  0  0  0  0  0  0  0  0  0  0
    1.7645  -13.1741   25.2833 N   0  0  0  0  0  0  0  0  0  0  0  0
  1  2  1  0
  2  3  1  0
  2  4  1  0
  2  5  1  0
  5  6  1  0
  6  7  1  0
  7  8  1  0
  8  9  1  0
  9 10  2  0
 10 11  1  0
 11 12  1  0
 12  8  2  0
M  END
>  <inchikey>  (95) 
YMARXTBGXAJPTA-UHFFFAOYSA-N

>  <energy_score>  (95) 
-15.590942

>  <MoCASSIn MergeScore>  (95) 
0.447211

>  <fragmenstein_outcome>  (95) 
acceptable

>  <tags>  (95) 
BulkDock Fragalysis export;Active site iter1 merge poses;Fragmenstein placed

>  <fragmenstein_runtime>  (95) 
4.122597

>  <original ID>  (95) 
YMARXTBGXAJPTA-UHFFFAOYSA-N

>  <alias>  (95) 
None

>  <ref_mols>  (95) 
x0414a,x0421b

>  <exports>  (95) 
/opt/xchem-fragalysis-2/maxwin/BulkDock/OUTPUTS/CpKRS_iter1_knitwork_impure_split1000_batch014_304176.sdf;/opt/xchem-fragalysis-2/maxwin/BulkDock/OUTPUTS/CpKRS_iter1_knitwork_impure_fragalysis.sdf;/opt/xchem-fragalysis-2/maxwin/CpKRS_FFF/hippo/filtered_merges.sdf

>  <csv_name>  (95) 
CpKRS_iter1_knitwork_impure_split1000_batch014.csv

>  <SLURM_JOB_NAME>  (95) 
BulkDock.place:CpKRS:CpKRS_iter1_knitwork_impure_split1000_batch014

>  <name>  (95) 
YMARXTBGXAJPTA-UHFFFAOYSA-N

>  <fragmenstein_error>  (95) 
None

>  <score_inspiration>  (95) 
0.67219

>  <HIPPO Compound ID>  (95) 
9799

>  <scratch_subdir>  (95) 
/opt/xchem-fragalysis-2/maxwin/BulkDock/SCRATCH/304176/C9799-P12

>  <distance_score>  (95) 
0.768087

>  <Merging Algorithm>  (95) 
Knitwork Impure

>  <subsites>  (95) 
None

>  <original SMILES>  (95) 
FC(F)(F)CNCc1cc[nH]n1

>  <SLURM_JOB_ID>  (95) 
304176

>  <HIPPO Pose ID>  (95) 
51376

>  <fragmenstein_mode>  (95) 
expansion

>  <ref_pdb>  (95) 
filtered_merges_wPDBs_YMARXTBGXAJPTA-UHFFFAOYSA-N.pdb

$$$$
IWURXPAEJJOERQ-UHFFFAOYSA-N
     RDKit          3D

 14 14  0  0  0  0  0  0  0  0999 V2000
    4.5649  -10.2249   26.6816 C   0  0  0  0  0  0  0  0  0  0  0  0
    5.4571   -9.2454   25.9405 C   0  0  0  0  0  0  0  0  0  0  0  0
    4.8583   -8.7017   24.6384 C   0  0  0  0  0  0  0  0  0  0  0  0
    5.8895   -8.6155   23.5059 C   0  0  0  0  0  0  0  0  0  0  0  0
    5.4091   -9.0922   22.1342 C   0  0  0  0  0  0  0  0  0  0  0  0
    4.5329  -10.3411   22.1316 C   0  0  0  0  0  0  0  0  0  0  0  0
    5.0060  -11.5043   22.9984 C   0  0  0  0  0  0  0  0  0  0  0  0
    3.8567  -12.0614   23.7108 N   0  0  0  0  0  0  0  0  0  0  0  0
    4.2025  -13.3295   24.3479 C   0  0  0  0  0  0  0  0  0  0  0  0
    3.0401  -13.8716   25.0905 C   0  0  0  0  0  0  0  0  0  0  0  0
    2.9285  -14.9534   25.9335 C   0  0  0  0  0  0  0  0  0  0  0  0
    1.5749  -14.9822   26.3131 C   0  0  0  0  0  0  0  0  0  0  0  0
    0.8690  -13.9947   25.7578 N   0  0  0  0  0  0  0  0  0  0  0  0
    1.7753  -13.3578   24.9967 N   0  0  0  0  0  0  0  0  0  0  0  0
  1  2  1  0
  2  3  1  0
  3  4  1  0
  4  5  1  0
  5  6  1  0
  6  7  1  0
  7  8  1  0
  8  9  1  0
  9 10  1  0
 10 11  2  0
 11 12  1  0
 12 13  2  0
 13 14  1  0
 14 10  1  0
M  END
>  <inchikey>  (96) 
IWURXPAEJJOERQ-UHFFFAOYSA-N

>  <energy_score>  (96) 
-12.251846

>  <MoCASSIn MergeScore>  (96) 
0.294128

>  <fragmenstein_outcome>  (96) 
acceptable

>  <tags>  (96) 
BulkDock Fragalysis export;Active site iter1 merge poses;Fragmenstein placed

>  <fragmenstein_runtime>  (96) 
4.960771

>  <original ID>  (96) 
IWURXPAEJJOERQ-UHFFFAOYSA-N

>  <alias>  (96) 
None

>  <ref_mols>  (96) 
x0414a,x0421b

>  <exports>  (96) 
/opt/xchem-fragalysis-2/maxwin/BulkDock/OUTPUTS/CpKRS_iter1_knitwork_impure_split1000_batch014_304176.sdf;/opt/xchem-fragalysis-2/maxwin/BulkDock/OUTPUTS/CpKRS_iter1_knitwork_impure_fragalysis.sdf;/opt/xchem-fragalysis-2/maxwin/CpKRS_FFF/hippo/filtered_merges.sdf

>  <csv_name>  (96) 
CpKRS_iter1_knitwork_impure_split1000_batch014.csv

>  <SLURM_JOB_NAME>  (96) 
BulkDock.place:CpKRS:CpKRS_iter1_knitwork_impure_split1000_batch014

>  <name>  (96) 
IWURXPAEJJOERQ-UHFFFAOYSA-N

>  <fragmenstein_error>  (96) 
None

>  <score_inspiration>  (96) 
0.454946

>  <HIPPO Compound ID>  (96) 
9800

>  <scratch_subdir>  (96) 
/opt/xchem-fragalysis-2/maxwin/BulkDock/SCRATCH/304176/C9800-P6

>  <distance_score>  (96) 
0.935542

>  <Merging Algorithm>  (96) 
Knitwork Impure

>  <subsites>  (96) 
None

>  <original SMILES>  (96) 
CCCCCCCNCc1ccn[nH]1

>  <SLURM_JOB_ID>  (96) 
304176

>  <HIPPO Pose ID>  (96) 
51384

>  <fragmenstein_mode>  (96) 
expansion

>  <ref_pdb>  (96) 
filtered_merges_wPDBs_IWURXPAEJJOERQ-UHFFFAOYSA-N.pdb

$$$$
YMARXTBGXAJPTA-UHFFFAOYSA-N
     RDKit          3D

 12 12  0  0  0  0  0  0  0  0999 V2000
    3.9224   -8.4597   23.8580 F   0  0  0  0  0  0  0  0  0  0  0  0
    5.0617   -9.1918   23.9324 C   0  0  0  0  0  0  0  0  0  0  0  0
    5.9751   -8.5987   23.1340 F   0  0  0  0  0  0  0  0  0  0  0  0
    5.5205   -9.0956   25.2038 F   0  0  0  0  0  0  0  0  0  0  0  0
    4.8122  -10.6720   23.5555 C   0  0  0  0  0  0  0  0  0  0  0  0
    3.7289  -11.3030   24.3331 N   0  0  0  0  0  0  0  0  0  0  0  0
    3.7093  -12.7710   24.2505 C   0  0  0  0  0  0  0  0  0  0  0  0
    2.9594  -13.3182   25.4483 C   0  0  0  0  0  0  0  0  0  0  0  0
    3.4247  -14.2971   26.3669 C   0  0  0  0  0  0  0  0  0  0  0  0
    2.4036  -14.4644   27.2693 C   0  0  0  0  0  0  0  0  0  0  0  0
    1.4320  -13.5910   26.8905 N   0  0  0  0  0  0  0  0  0  0  0  0
    1.7332  -12.8796   25.7944 N   0  0  0  0  0  0  0  0  0  0  0  0
  1  2  1  0
  2  3  1  0
  2  4  1  0
  2  5  1  0
  5  6  1  0
  6  7  1  0
  7  8  1  0
  8  9  1  0
  9 10  2  0
 10 11  1  0
 11 12  1  0
 12  8  2  0
M  END
>  <inchikey>  (97) 
YMARXTBGXAJPTA-UHFFFAOYSA-N

>  <energy_score>  (97) 
-15.785021

>  <MoCASSIn MergeScore>  (97) 
0.430888

>  <fragmenstein_outcome>  (97) 
acceptable

>  <tags>  (97) 
BulkDock Fragalysis export;Active site iter1 merge poses;Fragmenstein placed

>  <fragmenstein_runtime>  (97) 
4.152856

>  <original ID>  (97) 
YMARXTBGXAJPTA-UHFFFAOYSA-N

>  <alias>  (97) 
None

>  <ref_mols>  (97) 
x0414a,x0421d

>  <exports>  (97) 
/opt/xchem-fragalysis-2/maxwin/BulkDock/OUTPUTS/CpKRS_iter1_knitwork_impure_split1000_batch017_304179.sdf;/opt/xchem-fragalysis-2/maxwin/BulkDock/OUTPUTS/CpKRS_iter1_knitwork_impure_fragalysis.sdf;/opt/xchem-fragalysis-2/maxwin/CpKRS_FFF/hippo/filtered_merges.sdf

>  <csv_name>  (97) 
CpKRS_iter1_knitwork_impure_split1000_batch017.csv

>  <SLURM_JOB_NAME>  (97) 
BulkDock.place:CpKRS:CpKRS_iter1_knitwork_impure_split1000_batch017

>  <name>  (97) 
YMARXTBGXAJPTA-UHFFFAOYSA-N

>  <fragmenstein_error>  (97) 
None

>  <score_inspiration>  (97) 
0.660409

>  <HIPPO Compound ID>  (97) 
9799

>  <scratch_subdir>  (97) 
/opt/xchem-fragalysis-2/maxwin/BulkDock/SCRATCH/304179/C9799-P14

>  <distance_score>  (97) 
0.691492

>  <Merging Algorithm>  (97) 
Knitwork Impure

>  <subsites>  (97) 
None

>  <original SMILES>  (97) 
FC(F)(F)CNCc1cc[nH]n1

>  <SLURM_JOB_ID>  (97) 
304179

>  <HIPPO Pose ID>  (97) 
51501

>  <fragmenstein_mode>  (97) 
expansion

>  <ref_pdb>  (97) 
filtered_merges_wPDBs_YMARXTBGXAJPTA-UHFFFAOYSA-N.pdb

$$$$
