LYSRSCPZ-x0502_A_901_1_LYSRSCPZ-x0502+A+901+1__LIG
     RDKit          3D

 15 16  0  0  0  0  0  0  0  0999 V2000
   -9.4640  -14.6000   49.0560 C   0  0  0  0  0  0  0  0  0  0  0  0
   -9.2030  -13.3660   48.2550 C   0  0  0  0  0  0  0  0  0  0  0  0
   -8.1550  -12.5540   48.6480 N   0  0  0  0  0  0  0  0  0  0  0  0
   -7.9810  -11.5630   47.8260 C   0  0  0  0  0  0  0  0  0  0  0  0
   -9.1050  -11.5000   46.5500 S   0  0  0  0  0  0  0  0  0  0  0  0
   -9.9010  -12.9020   47.1600 C   0  0  0  0  0  0  0  0  0  0  0  0
  -11.1610  -13.3170   46.4700 C   0  0  0  0  0  0  0  0  0  0  0  0
  -11.8470  -12.4720   45.8980 O   0  0  0  0  0  0  0  0  0  0  0  0
  -11.4350  -14.6230   46.4530 N   0  0  0  0  0  0  0  0  0  0  0  0
  -12.5610  -15.1720   45.7100 C   0  0  0  0  0  0  0  0  0  0  0  0
  -12.2980  -15.2970   44.2230 C   0  0  0  0  0  0  0  0  0  0  0  0
  -11.2510  -16.3530   43.8670 C   0  0  0  0  0  0  0  0  0  0  0  0
  -12.0360  -17.6600   43.7140 C   0  0  0  0  0  0  0  0  0  0  0  0
  -13.4900  -17.2940   43.5720 C   0  0  0  0  0  0  0  0  0  0  0  0
  -13.5190  -15.7770   43.4380 C   0  0  0  0  0  0  0  0  0  0  0  0
  1  2  1  0
  2  3  1  0
  3  4  2  0
  4  5  1  0
  5  6  1  0
  6  7  1  0
  7  8  2  0
  7  9  1  0
  9 10  1  0
 10 11  1  0
 11 12  1  0
 12 13  1  0
 13 14  1  0
 14 15  1  0
  2  6  2  0
 11 15  1  0
M  END
$$$$
