LYSRSCPZ-x0414_A_805_1_LYSRSCPZ-x0602+B+701+1__LIG
     RDKit          3D

 10 10  0  0  0  0  0  0  0  0999 V2000
    6.1360   -7.9150   23.6810 C   0  0  0  0  0  0  0  0  0  0  0  0
    5.3290   -9.1460   24.0750 C   0  0  2  0  0  0  0  0  0  0  0  0
    3.8840   -8.8440   23.9790 N   0  0  0  0  0  0  0  0  0  0  0  0
    5.7610   -9.6570   25.4590 C   0  0  0  0  0  0  0  0  0  0  0  0
    4.9660  -10.7470   26.0430 N   0  0  0  0  0  0  0  0  0  0  0  0
    3.8110  -10.2530   26.8010 C   0  0  0  0  0  0  0  0  0  0  0  0
    3.0010  -11.4100   27.3290 C   0  0  0  0  0  0  0  0  0  0  0  0
    3.6660  -12.6520   27.1450 O   0  0  0  0  0  0  0  0  0  0  0  0
    3.8750  -12.9070   25.7630 C   0  0  0  0  0  0  0  0  0  0  0  0
    4.5110  -11.7340   25.0610 C   0  0  0  0  0  0  0  0  0  0  0  0
  2  1  1  1
  2  3  1  0
  2  4  1  0
  4  5  1  0
  5  6  1  0
  6  7  1  0
  7  8  1  0
  8  9  1  0
  9 10  1  0
  5 10  1  0
M  END
$$$$
