LYSRSCPZ-x0787_A_901_1_LYSRSCPZ-x0602+B+701+1__LIG
     RDKit          3D

 17 18  0  0  0  0  0  0  0  0999 V2000
    3.4300  -16.2180   29.3840 C   0  0  0  0  0  0  0  0  0  0  0  0
    2.4890  -16.2630   28.2510 C   0  0  0  0  0  0  0  0  0  0  0  0
    2.6860  -15.1410   27.2480 C   0  0  0  0  0  0  0  0  0  0  0  0
    1.8610  -14.1040   26.9570 C   0  0  0  0  0  0  0  0  0  0  0  0
    2.2910  -13.3430   25.8410 C   0  0  0  0  0  0  0  0  0  0  0  0
    3.5490  -13.7360   25.4010 C   0  0  0  0  0  0  0  0  0  0  0  0
    4.1170  -15.0930   26.2870 S   0  0  0  0  0  0  0  0  0  0  0  0
    4.4460  -13.1980   24.3480 C   0  0  0  0  0  0  0  0  0  0  0  0
    5.5590  -13.6930   24.1640 O   0  0  0  0  0  0  0  0  0  0  0  0
    3.9550  -12.1520   23.6540 N   0  0  0  0  0  0  0  0  0  0  0  0
    4.6260  -11.5930   22.4930 C   0  0  0  0  0  0  0  0  0  0  0  0
    5.0750  -10.1840   22.7340 C   0  0  0  0  0  0  0  0  0  0  0  0
    5.1250   -9.1200   21.8270 C   0  0  0  0  0  0  0  0  0  0  0  0
    5.6040   -8.0020   22.3880 N   0  0  0  0  0  0  0  0  0  0  0  0
    5.8840   -8.3600   23.6820 N   0  0  0  0  0  0  0  0  0  0  0  0
    6.4360   -7.3820   24.6180 C   0  0  0  0  0  0  0  0  0  0  0  0
    5.5700   -9.6540   23.9290 C   0  0  0  0  0  0  0  0  0  0  0  0
  1  2  1  0
  2  3  1  0
  3  4  2  0
  4  5  1  0
  5  6  2  0
  6  7  1  0
  6  8  1  0
  8  9  2  0
  8 10  1  0
 10 11  1  0
 11 12  1  0
 12 13  1  0
 13 14  2  0
 14 15  1  0
 15 16  1  0
 15 17  1  0
  3  7  1  0
 12 17  2  0
M  END
$$$$
