LYSRSCPZ-x0606_B_801_1_LYSRSCPZ-x0407+D+802+1__LIG
     RDKit          3D

 15 16  0  0  0  0  0  0  0  0999 V2000
    4.3110    3.3820   42.4810 O   0  0  0  0  0  0  0  0  0  0  0  0
    4.2430    4.6050   42.4740 C   0  0  0  0  0  0  0  0  0  0  0  0
    3.5740    5.3320   43.3960 N   0  0  0  0  0  0  0  0  0  0  0  0
    3.2130    4.9610   44.7040 C   0  0  0  0  0  0  0  0  0  0  0  0
    2.4080    5.7400   45.5370 C   0  0  0  0  0  0  0  0  0  0  0  0
    2.1040    5.2570   46.7880 C   0  0  0  0  0  0  0  0  0  0  0  0
    2.6080    4.0430   47.1940 C   0  0  0  0  0  0  0  0  0  0  0  0
    3.3940    3.3400   46.3100 C   0  0  0  0  0  0  0  0  0  0  0  0
    3.7070    3.7730   45.0760 N   0  0  0  0  0  0  0  0  0  0  0  0
    5.0120    5.3760   41.4420 C   0  0  1  0  0  0  0  0  0  0  0  0
    5.0960    4.6750   40.1170 C   0  0  0  0  0  0  0  0  0  0  0  0
    5.8920    5.4350   39.2170 O   0  0  0  0  0  0  0  0  0  0  0  0
    5.3160    6.7270   39.0300 C   0  0  0  0  0  0  0  0  0  0  0  0
    5.1680    7.4620   40.3270 C   0  0  0  0  0  0  0  0  0  0  0  0
    4.4390    6.6780   41.2790 O   0  0  0  0  0  0  0  0  0  0  0  0
  1  2  2  0
  2  3  1  0
  3  4  1  0
  4  5  2  0
  5  6  1  0
  6  7  2  0
  7  8  1  0
  8  9  2  0
 10  2  1  1
 10 11  1  0
 11 12  1  0
 12 13  1  0
 13 14  1  0
 14 15  1  0
  4  9  1  0
 10 15  1  0
M  END
$$$$
