LYSRSCPZ-x0487_B_801_1_LYSRSCPZ-x0602+B+701+1__LIG
     RDKit          3D

 15 15  0  0  0  0  0  0  0  0999 V2000
    0.6720  -23.9820   14.5050 C   0  0  0  0  0  0  0  0  0  0  0  0
    1.5020  -25.1170   15.0040 C   0  0  0  0  0  0  0  0  0  0  0  0
    2.4950  -25.5230   14.4100 O   0  0  0  0  0  0  0  0  0  0  0  0
    1.0930  -25.6510   16.1440 N   0  0  0  0  0  0  0  0  0  0  0  0
    2.0030  -26.2830   17.0580 C   0  0  0  0  0  0  0  0  0  0  0  0
    2.7580  -25.3160   17.9310 C   0  0  0  0  0  0  0  0  0  0  0  0
    3.5700  -24.3320   17.3810 C   0  0  0  0  0  0  0  0  0  0  0  0
    4.2770  -23.4580   18.1890 C   0  0  0  0  0  0  0  0  0  0  0  0
    4.1740  -23.5670   19.5650 C   0  0  0  0  0  0  0  0  0  0  0  0
    3.3940  -24.5600   20.1290 C   0  0  0  0  0  0  0  0  0  0  0  0
    2.6870  -25.4230   19.3110 C   0  0  0  0  0  0  0  0  0  0  0  0
    5.0920  -22.5010   20.6350 S   0  0  0  0  0  0  0  0  0  0  0  0
    5.7590  -23.3870   21.5370 O   0  0  0  0  0  0  0  0  0  0  0  0
    4.2200  -21.4910   21.1570 O   0  0  0  0  0  0  0  0  0  0  0  0
    6.2350  -21.7400   19.8140 N   0  0  0  0  0  0  0  0  0  0  0  0
  1  2  1  0
  2  3  2  0
  2  4  1  0
  4  5  1  0
  5  6  1  0
  6  7  2  0
  7  8  1  0
  8  9  2  0
  9 10  1  0
 10 11  2  0
  9 12  1  0
 12 13  2  0
 12 14  2  0
 12 15  1  0
  6 11  1  0
M  END
$$$$
