LYSRSCPZ-x0407_D_802_1_LYSRSCPZ-x0407+D+802+1__LIG
     RDKit          3D

 15 16  0  0  0  0  0  0  0  0999 V2000
    1.7020    4.2390   47.2760 C   0  0  0  0  0  0  0  0  0  0  0  0
    1.5280    5.3820   46.2960 C   0  0  0  0  0  0  0  0  0  0  0  0
    2.4430    5.2570   45.1070 C   0  0  0  0  0  0  0  0  0  0  0  0
    3.6070    4.7230   45.1700 N   0  0  0  0  0  0  0  0  0  0  0  0
    3.9660    4.1910   43.9450 N   0  0  0  0  0  0  0  0  0  0  0  0
    3.4000    4.8540   42.9850 C   0  0  0  0  0  0  0  0  0  0  0  0
    3.9300    4.8420   41.7150 N   0  0  0  0  0  0  0  0  0  0  0  0
    5.1420    4.2840   41.4600 C   0  0  0  0  0  0  0  0  0  0  0  0
    5.6860    3.5310   42.2470 O   0  0  0  0  0  0  0  0  0  0  0  0
    5.8510    4.6390   40.1860 C   0  0  1  0  0  0  0  0  0  0  0  0
    4.9290    4.8310   38.9880 C   0  0  0  0  0  0  0  0  0  0  0  0
    4.7910    6.3370   38.8380 C   0  0  0  0  0  0  0  0  0  0  0  0
    6.0820    6.8420   39.3660 C   0  0  0  0  0  0  0  0  0  0  0  0
    6.5770    5.8660   40.3080 O   0  0  0  0  0  0  0  0  0  0  0  0
    2.0130    5.7480   43.4860 S   0  0  0  0  0  0  0  0  0  0  0  0
  1  2  1  0
  2  3  1  0
  3  4  2  0
  4  5  1  0
  5  6  2  0
  6  7  1  0
  7  8  1  0
  8  9  2  0
 10  8  1  1
 10 11  1  0
 11 12  1  0
 12 13  1  0
 13 14  1  0
  6 15  1  0
  3 15  1  0
 10 14  1  0
M  END
$$$$
