LYSRSCPZ-x0421_C_1202_1_LYSRSCPZ-x0602+B+701+1__LIG
     RDKit          3D

 15 16  0  0  0  0  0  0  0  0999 V2000
   -0.0180  -13.8440   26.5260 C   0  0  0  0  0  0  0  0  0  0  0  0
    1.4120  -14.0520   26.3450 N   0  0  0  0  0  0  0  0  0  0  0  0
    2.2140  -14.9830   26.9130 C   0  0  0  0  0  0  0  0  0  0  0  0
    3.4730  -14.7760   26.4290 C   0  0  0  0  0  0  0  0  0  0  0  0
    4.8740  -15.6790   26.8190 Cl  0  0  0  0  0  0  0  0  0  0  0  0
    3.3920  -13.6840   25.5510 C   0  0  0  0  0  0  0  0  0  0  0  0
    2.1230  -13.2460   25.5160 N   0  0  0  0  0  0  0  0  0  0  0  0
    4.4230  -12.9950   24.7540 C   0  0  0  0  0  0  0  0  0  0  0  0
    5.5070  -13.5410   24.5030 O   0  0  0  0  0  0  0  0  0  0  0  0
    4.1390  -11.7370   24.3620 N   0  0  0  0  0  0  0  0  0  0  0  0
    5.1330  -10.8560   23.7650 C   0  0  0  0  0  0  0  0  0  0  0  0
    5.1260  -10.9180   22.2280 C   0  0  0  0  0  0  0  0  0  0  0  0
    5.3170   -9.4880   21.7180 C   0  0  0  0  0  0  0  0  0  0  0  0
    5.5460   -8.6300   22.9370 C   0  0  0  0  0  0  0  0  0  0  0  0
    4.8950   -9.3810   24.0910 C   0  0  0  0  0  0  0  0  0  0  0  0
  1  2  1  0
  2  3  1  0
  3  4  2  0
  4  5  1  0
  4  6  1  0
  6  7  2  0
  6  8  1  0
  8  9  2  0
  8 10  1  0
 10 11  1  0
 11 12  1  0
 12 13  1  0
 13 14  1  0
 14 15  1  0
  2  7  1  0
 11 15  1  0
M  END
$$$$
