ver_1.2
     RDKit          3D

 23 23  0  0  0  0  0  0  0  0999 V2000
   -5.3053    1.5372   -1.1795 C   0  0  0  0  0  0  0  0  0  0  0  0
   -5.2889    0.0444   -1.0268 C   0  0  0  0  0  0  0  0  0  0  0  0
   -3.9575   -0.3926   -0.9126 O   0  0  0  0  0  0  0  0  0  0  0  0
   -3.1259    0.0421    0.1196 C   0  0  0  0  0  0  0  0  0  0  0  0
   -3.5561    0.8488    0.9862 O   0  0  0  0  0  0  0  0  0  0  0  0
   -1.7473   -0.4829    0.1393 C   0  0  0  0  0  0  0  0  0  0  0  0
   -1.0925    0.0741   -1.1326 C   0  0  0  0  0  0  0  0  0  0  0  0
   -1.7388   -1.9832    0.0354 C   0  0  0  0  0  0  0  0  0  0  0  0
   -0.9625    0.0099    1.2260 N   0  0  0  0  0  0  0  0  0  0  0  0
   -0.7947    1.4190    1.2537 C   0  0  0  0  0  0  0  0  0  0  0  0
   -1.0109    2.0387    2.6100 C   0  0  0  0  0  0  0  0  0  0  0  0
    0.4450   -0.9112    1.5340 S   0  0  0  0  0  0  0  0  0  0  0  0
    0.0330   -2.3428    1.7181 O   0  0  0  0  0  0  0  0  0  0  0  0
    1.2310   -0.4394    2.6870 O   0  0  0  0  0  0  0  0  0  0  0  0
    1.4474   -0.8395    0.1024 C   0  0  0  0  0  0  0  0  0  0  0  0
    1.3535   -1.7487   -0.9274 C   0  0  0  0  0  0  0  0  0  0  0  0
    2.1710   -1.6585   -2.0540 C   0  0  0  0  0  0  0  0  0  0  0  0
    3.0724   -0.6384   -2.1093 C   0  0  0  0  0  0  0  0  0  0  0  0
    3.1790    0.2762   -1.0918 C   0  0  0  0  0  0  0  0  0  0  0  0
    4.1129    1.3587   -1.1157 N   0  0  0  0  0  0  0  0  0  0  0  0
    3.8029    2.4824   -1.6125 O   0  0  0  0  0  0  0  0  0  0  0  0
    5.3609    1.1278   -0.5765 O   0  0  0  0  0  0  0  0  0  0  0  0
    2.3712    0.1779    0.0098 C   0  0  0  0  0  0  0  0  0  0  0  0
  1  2  1  0
  2  3  1  0
  3  4  1  0
  4  5  2  0
  4  6  1  0
  6  7  1  0
  6  8  1  0
  6  9  1  0
  9 10  1  0
 10 11  1  0
  9 12  1  0
 12 13  2  0
 12 14  2  0
 12 15  1  0
 15 16  2  0
 16 17  1  0
 17 18  2  0
 18 19  1  0
 19 20  1  0
 20 21  2  0
 20 22  1  0
 19 23  2  0
 23 15  1  0
M  CHG  1  20   1
M  END
>  <ref_url>  (1) 
https://github.com/mwinokan/BulkDock

>  <submitter_name>  (1) 
Max Winokan

>  <submitter_email>  (1) 
max.winokan@diamond.ac.uk

>  <submitter_institution>  (1) 
DLS

>  <generation_date>  (1) 
2025-09-08

>  <method>  (1) 
CpKRS_FrAncestor_bulkdock_iter1_cluster_best5

>  <HIPPO Pose ID>  (1) 
HIPPO Pose ID

>  <HIPPO Compound ID>  (1) 
HIPPO Compound ID

>  <smiles>  (1) 
smiles

>  <ref_pdb>  (1) 
protein reference

>  <ref_mols>  (1) 
fragment inspirations

>  <alias>  (1) 
alias

>  <distance_score>  (1) 
distance_score

>  <energy_score>  (1) 
energy_score

>  <inspiration_score>  (1) 
inspiration_score

>  <subsites>  (1) 
subsites

>  <tags>  (1) 
tags

>  <placement_batch>  (1) 
BulkDock placement batch

$$$$
C565240-P32
     RDKit          3D

 23 23  0  0  0  0  0  0  0  0999 V2000
    1.8850  -24.6322   10.6069 C   0  0  0  0  0  0  0  0  0  0  0  0
    1.9936  -25.8568   11.4944 C   0  0  0  0  0  0  0  0  0  0  0  0
    0.9558  -25.8492   12.4796 O   0  0  0  0  0  0  0  0  0  0  0  0
    1.2412  -25.1832   13.6408 C   0  0  0  0  0  0  0  0  0  0  0  0
    2.3050  -24.6101   13.8432 O   0  0  0  0  0  0  0  0  0  0  0  0
    0.0217  -25.1612   14.5922 C   0  0  0  0  0  0  0  0  0  0  0  0
   -0.6697  -23.8493   14.1897 C   0  0  0  0  0  0  0  0  0  0  0  0
   -0.8949  -26.3691   14.3270 C   0  0  0  0  0  0  0  0  0  0  0  0
    0.4113  -25.1304   16.0475 N   0  0  0  0  0  0  0  0  0  0  0  0
   -0.4495  -24.4239   17.0330 C   0  0  0  0  0  0  0  0  0  0  0  0
   -1.8045  -25.0640   17.2708 C   0  0  0  0  0  0  0  0  0  0  0  0
    1.4393  -26.3219   16.6562 S   0  0  0  0  0  0  0  0  0  0  0  0
    2.2288  -26.8635   15.5720 O   0  0  0  0  0  0  0  0  0  0  0  0
    0.6426  -27.2019   17.4832 O   0  0  0  0  0  0  0  0  0  0  0  0
    2.5384  -25.4124   17.7295 C   0  0  0  0  0  0  0  0  0  0  0  0
    3.3122  -24.3855   17.1804 C   0  0  0  0  0  0  0  0  0  0  0  0
    4.1151  -23.6046   18.0092 C   0  0  0  0  0  0  0  0  0  0  0  0
    4.1471  -23.8497   19.3820 C   0  0  0  0  0  0  0  0  0  0  0  0
    3.3898  -24.8964   19.9281 C   0  0  0  0  0  0  0  0  0  0  0  0
    3.4721  -25.1463   21.3501 N   0  0  0  0  0  0  0  0  0  0  0  0
    4.3366  -24.3589   22.1426 O   0  0  0  0  0  0  0  0  0  0  0  0
    2.8327  -26.2524   21.9448 O   0  0  0  0  0  0  0  0  0  0  0  0
    2.5820  -25.6885   19.1048 C   0  0  0  0  0  0  0  0  0  0  0  0
  1  2  1  0
  2  3  1  0
  3  4  1  0
  4  5  2  0
  4  6  1  0
  6  7  1  0
  6  8  1  0
  6  9  1  0
  9 10  1  0
 10 11  1  0
  9 12  1  0
 12 13  2  0
 12 14  2  0
 12 15  1  0
 15 16  2  0
 16 17  1  0
 17 18  2  0
 18 19  1  0
 19 20  1  0
 20 21  2  0
 20 22  1  0
 19 23  2  0
 23 15  1  0
M  CHG  1  20   1
M  END
>  <inspiration_score>  (1) 
0.419

>  <HIPPO Pose ID>  (1) 
62892

>  <ref_pdb>  (1) 
x0414a

>  <ref_mols>  (1) 
x0487a

>  <HIPPO Compound ID>  (1) 
565240

>  <energy_score>  (1) 
-102.652825

>  <tags>  (1) 
CpKRS_FrAncestor_bulkdock_iter1,CpKRS_FrAncestor_bulkdock_iter1_cluster_best5,fragmenstein_placed,CpKRS_FrAncestor_bulkdock_iter1_exported,BulkDock Fragalysis export

>  <inchikey>  (1) 
UGEJNOIFEUJHRP-UHFFFAOYSA-N

>  <placement_batch>  (1) 
CpKRS_FrAncestor_bulkdock_iter1_cluster_best5

>  <alias>  (1) 
C565240-P32

>  <name>  (1) 
C565240-P32

>  <smiles>  (1) 
CCOC(=O)C(C)(C)N(CC)S(=O)(=O)c1cccc([N+](=O)O)c1

>  <subsites>  (1) 


>  <distance_score>  (1) 
0.992087

$$$$
C565478-P22
     RDKit          3D

 18 18  0  0  0  0  0  0  0  0999 V2000
   25.5961    1.8333   24.6111 C   0  0  0  0  0  0  0  0  0  0  0  0
   26.3731    2.9163   24.5102 C   0  0  0  0  0  0  0  0  0  0  0  0
   27.2384    3.4673   25.5840 C   0  0  0  0  0  0  0  0  0  0  0  0
   26.6784    3.3659   26.9314 N   0  0  0  0  0  0  0  0  0  0  0  0
   25.1807    4.0408   27.3288 S   0  0  0  0  0  0  0  0  0  0  0  0
   24.1291    3.2051   26.8062 O   0  0  0  0  0  0  0  0  0  0  0  0
   25.2440    4.3017   28.7536 O   0  0  0  0  0  0  0  0  0  0  0  0
   25.1322    5.6133   26.5164 C   0  0  0  0  0  0  0  0  0  0  0  0
   24.0283    5.9412   25.7026 C   0  0  0  0  0  0  0  0  0  0  0  0
   23.9513    7.1918   25.0716 C   0  0  0  0  0  0  0  0  0  0  0  0
   22.7868    7.6340   24.1840 C   0  0  0  0  0  0  0  0  0  0  0  0
   22.2967    9.0513   24.5312 C   0  0  0  0  0  0  0  0  0  0  0  0
   21.5464    6.7329   24.1932 C   0  0  0  0  0  0  0  0  0  0  0  0
   25.0515    8.0505   25.2240 C   0  0  0  0  0  0  0  0  0  0  0  0
   26.1458    7.7220   26.0314 C   0  0  0  0  0  0  0  0  0  0  0  0
   26.1828    6.5148   26.7184 C   0  0  0  0  0  0  0  0  0  0  0  0
   27.2175    6.1429   27.5344 O   0  0  0  0  0  0  0  0  0  0  0  0
   28.1005    7.1658   27.9792 C   0  0  0  0  0  0  0  0  0  0  0  0
  1  2  2  0
  2  3  1  0
  3  4  1  0
  4  5  1  0
  5  6  2  0
  5  7  2  0
  5  8  1  0
  8  9  2  0
  9 10  1  0
 10 11  1  0
 11 12  1  0
 11 13  1  0
 10 14  2  0
 14 15  1  0
 15 16  2  0
 16 17  1  0
 17 18  1  0
 16  8  1  0
M  END
>  <inspiration_score>  (2) 
0.381

>  <HIPPO Pose ID>  (2) 
63368

>  <ref_pdb>  (2) 
x0414a

>  <ref_mols>  (2) 
x0472b

>  <HIPPO Compound ID>  (2) 
565478

>  <energy_score>  (2) 
-291.739996

>  <tags>  (2) 
CpKRS_FrAncestor_bulkdock_iter1,CpKRS_FrAncestor_bulkdock_iter1_cluster_best5,fragmenstein_placed,CpKRS_FrAncestor_bulkdock_iter1_exported,BulkDock Fragalysis export

>  <inchikey>  (2) 
FKCMHLCMXMDABX-UHFFFAOYSA-N

>  <placement_batch>  (2) 
CpKRS_FrAncestor_bulkdock_iter1_cluster_best5

>  <alias>  (2) 
C565478-P22

>  <name>  (2) 
C565478-P22

>  <smiles>  (2) 
C=CCNS(=O)(=O)c1cc(C(C)C)ccc1OC

>  <subsites>  (2) 


>  <distance_score>  (2) 
0.973218

$$$$
C565526-P32
     RDKit          3D

 21 21  0  0  0  0  0  0  0  0999 V2000
   -5.4441  -21.7717   16.2166 C   0  0  0  0  0  0  0  0  0  0  0  0
   -4.8154  -21.1252   14.9921 C   0  0  0  0  0  0  0  0  0  0  0  0
   -3.6317  -20.2112   15.3227 C   0  0  0  0  0  0  0  0  0  0  0  0
   -2.4365  -20.9367   15.9322 C   0  0  0  0  0  0  0  0  0  0  0  0
   -1.9232  -21.8910   15.0009 O   0  0  0  0  0  0  0  0  0  0  0  0
   -0.7940  -22.5808   15.5492 C   0  0  0  0  0  0  0  0  0  0  0  0
   -0.3210  -23.6131   14.5324 C   0  0  0  0  0  0  0  0  0  0  0  0
    0.8777  -24.4238   14.9948 C   0  0  0  0  0  0  0  0  0  0  0  0
    0.5881  -25.0997   16.2610 N   0  0  0  0  0  0  0  0  0  0  0  0
    1.7509  -26.1204   16.8795 S   0  0  0  0  0  0  0  0  0  0  0  0
    2.5797  -26.5424   15.7723 O   0  0  0  0  0  0  0  0  0  0  0  0
    1.0355  -27.0651   17.7061 O   0  0  0  0  0  0  0  0  0  0  0  0
    2.7396  -25.0950   17.9377 C   0  0  0  0  0  0  0  0  0  0  0  0
    2.6482  -25.2097   19.3300 C   0  0  0  0  0  0  0  0  0  0  0  0
    3.4272  -24.3814   20.1467 C   0  0  0  0  0  0  0  0  0  0  0  0
    4.2984  -23.4574   19.5596 C   0  0  0  0  0  0  0  0  0  0  0  0
    5.0094  -22.5146   20.3902 N   0  0  0  0  0  0  0  0  0  0  0  0
    4.3189  -21.8960   21.4584 O   0  0  0  0  0  0  0  0  0  0  0  0
    6.3445  -22.1355   20.1034 O   0  0  0  0  0  0  0  0  0  0  0  0
    4.4201  -23.3741   18.1718 C   0  0  0  0  0  0  0  0  0  0  0  0
    3.6484  -24.2037   17.3595 C   0  0  0  0  0  0  0  0  0  0  0  0
  1  2  1  0
  2  3  1  0
  3  4  1  0
  4  5  1  0
  5  6  1  0
  6  7  1  0
  7  8  1  0
  8  9  1  0
  9 10  1  0
 10 11  2  0
 10 12  2  0
 10 13  1  0
 13 14  2  0
 14 15  1  0
 15 16  2  0
 16 17  1  0
 17 18  2  0
 17 19  1  0
 16 20  1  0
 20 21  2  0
 21 13  1  0
M  CHG  1  17   1
M  END
>  <inspiration_score>  (3) 
0.69

>  <HIPPO Pose ID>  (3) 
63455

>  <ref_pdb>  (3) 
x0414a

>  <ref_mols>  (3) 
x0487a

>  <HIPPO Compound ID>  (3) 
565526

>  <energy_score>  (3) 
-138.790067

>  <tags>  (3) 
CpKRS_FrAncestor_bulkdock_iter1,CpKRS_FrAncestor_bulkdock_iter1_cluster_best5,fragmenstein_placed,CpKRS_FrAncestor_bulkdock_iter1_exported,BulkDock Fragalysis export

>  <inchikey>  (3) 
IRCDPDFOABHVHJ-UHFFFAOYSA-N

>  <placement_batch>  (3) 
CpKRS_FrAncestor_bulkdock_iter1_cluster_best5

>  <alias>  (3) 
C565526-P32

>  <name>  (3) 
C565526-P32

>  <smiles>  (3) 
CCCCOCCCNS(=O)(=O)c1ccc([N+](=O)O)cc1

>  <subsites>  (3) 


>  <distance_score>  (3) 
0.632589

$$$$
C565572-P31
     RDKit          3D

 21 21  0  0  0  0  0  0  0  0999 V2000
    0.7356   18.2962   38.9202 C   0  0  0  0  0  0  0  0  0  0  0  0
    0.0899   17.2530   39.8293 C   0  0  0  0  0  0  0  0  0  0  0  0
    0.9961   16.8300   40.9167 N   0  0  0  0  0  0  0  0  0  0  0  0
    1.0168   17.8598   41.9832 C   0  0  0  0  0  0  0  0  0  0  0  0
    2.2355   17.7508   42.8928 C   0  0  0  0  0  0  0  0  0  0  0  0
    0.5641   15.5318   41.4907 C   0  0  0  0  0  0  0  0  0  0  0  0
    0.8407   14.3401   40.5593 C   0  0  0  0  0  0  0  0  0  0  0  0
    0.4791   13.0279   41.2361 C   0  0  0  0  0  0  0  0  0  0  0  0
    0.6368   11.9325   40.2673 N   0  0  0  0  0  0  0  0  0  0  0  0
    1.1293   10.4337   40.8519 S   0  0  0  0  0  0  0  0  0  0  0  0
    1.2114   10.5393   42.2888 O   0  0  0  0  0  0  0  0  0  0  0  0
    0.2888    9.4673   40.1822 O   0  0  0  0  0  0  0  0  0  0  0  0
    2.7586   10.2437   40.1775 C   0  0  0  0  0  0  0  0  0  0  0  0
    3.7521    9.5761   40.9022 C   0  0  0  0  0  0  0  0  0  0  0  0
    5.0059    9.3553   40.3176 C   0  0  0  0  0  0  0  0  0  0  0  0
    5.2441    9.7980   39.0123 C   0  0  0  0  0  0  0  0  0  0  0  0
    6.5265    9.5915   38.3853 N   0  0  0  0  0  0  0  0  0  0  0  0
    6.6171    9.5274   36.9741 O   0  0  0  0  0  0  0  0  0  0  0  0
    7.7012    9.5765   39.1570 O   0  0  0  0  0  0  0  0  0  0  0  0
    4.2549   10.4777   38.2977 C   0  0  0  0  0  0  0  0  0  0  0  0
    3.0139   10.7110   38.8851 C   0  0  0  0  0  0  0  0  0  0  0  0
  1  2  1  0
  2  3  1  0
  3  4  1  0
  4  5  1  0
  3  6  1  0
  6  7  1  0
  7  8  1  0
  8  9  1  0
  9 10  1  0
 10 11  2  0
 10 12  2  0
 10 13  1  0
 13 14  2  0
 14 15  1  0
 15 16  2  0
 16 17  1  0
 17 18  2  0
 17 19  1  0
 16 20  1  0
 20 21  2  0
 21 13  1  0
M  CHG  1  17   1
M  END
>  <inspiration_score>  (4) 
0.678

>  <HIPPO Pose ID>  (4) 
63538

>  <ref_pdb>  (4) 
x0414a

>  <ref_mols>  (4) 
x0487b

>  <HIPPO Compound ID>  (4) 
565572

>  <energy_score>  (4) 
-77.043864

>  <tags>  (4) 
CpKRS_FrAncestor_bulkdock_iter1,CpKRS_FrAncestor_bulkdock_iter1_cluster_best5,fragmenstein_placed,CpKRS_FrAncestor_bulkdock_iter1_exported,BulkDock Fragalysis export

>  <inchikey>  (4) 
XKCFWALMCKUBMM-UHFFFAOYSA-N

>  <placement_batch>  (4) 
CpKRS_FrAncestor_bulkdock_iter1_cluster_best5

>  <alias>  (4) 
C565572-P31

>  <name>  (4) 
C565572-P31

>  <smiles>  (4) 
CCN(CC)CCCNS(=O)(=O)c1ccc([N+](=O)O)cc1

>  <subsites>  (4) 


>  <distance_score>  (4) 
0.767708

$$$$
C565600-P21
     RDKit          3D

 17 17  0  0  0  0  0  0  0  0999 V2000
   23.6781   10.6793   23.0719 C   0  0  0  0  0  0  0  0  0  0  0  0
   22.5759   10.9433   24.0860 C   0  0  0  0  0  0  0  0  0  0  0  0
   21.5452    9.8330   24.1882 C   0  0  0  0  0  0  0  0  0  0  0  0
   22.1042    8.6823   24.9353 N   0  0  0  0  0  0  0  0  0  0  0  0
   22.4789    7.3271   23.9719 S   0  0  0  0  0  0  0  0  0  0  0  0
   23.0545    7.7656   22.7238 O   0  0  0  0  0  0  0  0  0  0  0  0
   21.2886    6.5113   24.0572 O   0  0  0  0  0  0  0  0  0  0  0  0
   23.7558    6.5524   24.9211 C   0  0  0  0  0  0  0  0  0  0  0  0
   23.7489    5.1653   25.0221 C   0  0  0  0  0  0  0  0  0  0  0  0
   24.6641    4.5164   25.8461 C   0  0  0  0  0  0  0  0  0  0  0  0
   25.5945    5.2619   26.5715 C   0  0  0  0  0  0  0  0  0  0  0  0
   26.4554    4.6204   27.4248 O   0  0  0  0  0  0  0  0  0  0  0  0
   25.7507    4.0511   28.5316 C   0  0  0  0  0  0  0  0  0  0  0  0
   25.6608    6.6536   26.4029 C   0  0  0  0  0  0  0  0  0  0  0  0
   26.5456    7.4859   27.0392 O   0  0  0  0  0  0  0  0  0  0  0  0
   27.8854    7.0029   27.0855 C   0  0  0  0  0  0  0  0  0  0  0  0
   24.7128    7.3040   25.6029 C   0  0  0  0  0  0  0  0  0  0  0  0
  1  2  1  0
  2  3  1  0
  3  4  1  0
  4  5  1  0
  5  6  2  0
  5  7  2  0
  5  8  1  0
  8  9  2  0
  9 10  1  0
 10 11  2  0
 11 12  1  0
 12 13  1  0
 11 14  1  0
 14 15  1  0
 15 16  1  0
 14 17  2  0
 17  8  1  0
M  END
>  <inspiration_score>  (5) 
0.456

>  <HIPPO Pose ID>  (5) 
63587

>  <ref_pdb>  (5) 
x0414a

>  <ref_mols>  (5) 
x0472a

>  <HIPPO Compound ID>  (5) 
565600

>  <energy_score>  (5) 
-282.885651

>  <tags>  (5) 
CpKRS_FrAncestor_bulkdock_iter1,CpKRS_FrAncestor_bulkdock_iter1_cluster_best5,fragmenstein_placed,CpKRS_FrAncestor_bulkdock_iter1_exported,BulkDock Fragalysis export

>  <inchikey>  (5) 
CQXLFGRCVLARQK-UHFFFAOYSA-N

>  <placement_batch>  (5) 
CpKRS_FrAncestor_bulkdock_iter1_cluster_best5

>  <alias>  (5) 
C565600-P21

>  <name>  (5) 
C565600-P21

>  <smiles>  (5) 
CCCNS(=O)(=O)c1ccc(OC)c(OC)c1

>  <subsites>  (5) 


>  <distance_score>  (5) 
0.563588

$$$$
C565637-P31
     RDKit          3D

 17 17  0  0  0  0  0  0  0  0999 V2000
   10.4051    9.4958   44.4979 O   0  0  0  0  0  0  0  0  0  0  0  0
   10.2281   10.1404   43.4901 C   0  0  0  0  0  0  0  0  0  0  0  0
   10.9394   11.1619   42.9795 O   0  0  0  0  0  0  0  0  0  0  0  0
    9.0750    9.7847   42.6536 C   0  0  0  0  0  0  0  0  0  0  0  0
    8.6846   10.4505   41.0213 C   0  0  0  0  0  0  0  0  0  0  0  0
    7.6379    9.6915   40.1100 C   0  0  0  0  0  0  0  0  0  0  0  0
    7.1309   10.3418   38.9013 N   0  0  0  0  0  0  0  0  0  0  0  0
    6.0967    9.3858   37.9525 S   0  0  0  0  0  0  0  0  0  0  0  0
    6.4455    7.9922   38.1230 O   0  0  0  0  0  0  0  0  0  0  0  0
    6.0021    9.9635   36.6346 O   0  0  0  0  0  0  0  0  0  0  0  0
    4.5420    9.6589   38.7727 C   0  0  0  0  0  0  0  0  0  0  0  0
    3.8914   10.8883   38.6300 C   0  0  0  0  0  0  0  0  0  0  0  0
    2.6996   11.1191   39.3158 C   0  0  0  0  0  0  0  0  0  0  0  0
    2.1617   10.1122   40.1104 C   0  0  0  0  0  0  0  0  0  0  0  0
    1.0191   10.3352   40.7727 F   0  0  0  0  0  0  0  0  0  0  0  0
    2.7861    8.8729   40.2221 C   0  0  0  0  0  0  0  0  0  0  0  0
    3.9883    8.6417   39.5572 C   0  0  0  0  0  0  0  0  0  0  0  0
  1  2  2  0
  2  3  1  0
  2  4  1  0
  4  5  1  0
  5  6  1  0
  6  7  1  0
  7  8  1  0
  8  9  2  0
  8 10  2  0
  8 11  1  0
 11 12  2  0
 12 13  1  0
 13 14  2  0
 14 15  1  0
 14 16  1  0
 16 17  2  0
 17 11  1  0
M  END
>  <inspiration_score>  (6) 
0.487

>  <HIPPO Pose ID>  (6) 
63651

>  <ref_pdb>  (6) 
x0414a

>  <ref_mols>  (6) 
x0487b

>  <HIPPO Compound ID>  (6) 
565637

>  <energy_score>  (6) 
-208.720239

>  <tags>  (6) 
CpKRS_FrAncestor_bulkdock_iter1,CpKRS_FrAncestor_bulkdock_iter1_cluster_best5,fragmenstein_placed,CpKRS_FrAncestor_bulkdock_iter1_exported,BulkDock Fragalysis export

>  <inchikey>  (6) 
BPQIMZMQDTUPAE-UHFFFAOYSA-N

>  <placement_batch>  (6) 
CpKRS_FrAncestor_bulkdock_iter1_cluster_best5

>  <alias>  (6) 
C565637-P31

>  <name>  (6) 
C565637-P31

>  <smiles>  (6) 
O=C(O)CCCNS(=O)(=O)c1ccc(F)cc1

>  <subsites>  (6) 


>  <distance_score>  (6) 
0.847482

$$$$
C565694-P31
     RDKit          3D

 18 18  0  0  0  0  0  0  0  0999 V2000
   -1.8270   14.9033   41.5621 O   0  0  0  0  0  0  0  0  0  0  0  0
   -0.6178   15.0110   41.6840 C   0  0  0  0  0  0  0  0  0  0  0  0
   -0.0700   16.0979   42.2600 O   0  0  0  0  0  0  0  0  0  0  0  0
    0.4242   14.0301   41.2351 C   0  0  0  0  0  0  0  0  0  0  0  0
   -0.2271   12.8897   40.4746 C   0  0  0  0  0  0  0  0  0  0  0  0
    0.7967   11.9668   39.9066 N   0  0  0  0  0  0  0  0  0  0  0  0
    1.1539   10.6279   40.8856 S   0  0  0  0  0  0  0  0  0  0  0  0
    1.3573   11.0952   42.2350 O   0  0  0  0  0  0  0  0  0  0  0  0
    0.1516    9.6482   40.5350 O   0  0  0  0  0  0  0  0  0  0  0  0
    2.7087   10.0605   40.2611 C   0  0  0  0  0  0  0  0  0  0  0  0
    3.5498   10.9029   39.5300 C   0  0  0  0  0  0  0  0  0  0  0  0
    4.7551   10.3995   39.0396 C   0  0  0  0  0  0  0  0  0  0  0  0
    5.1198    9.0827   39.3174 C   0  0  0  0  0  0  0  0  0  0  0  0
    6.4082    8.5908   38.9197 N   0  0  0  0  0  0  0  0  0  0  0  0
    6.5430    7.2333   38.5513 O   0  0  0  0  0  0  0  0  0  0  0  0
    7.5526    9.3716   39.1630 O   0  0  0  0  0  0  0  0  0  0  0  0
    4.2668    8.2305   40.0145 C   0  0  0  0  0  0  0  0  0  0  0  0
    3.0477    8.7192   40.4694 C   0  0  0  0  0  0  0  0  0  0  0  0
  1  2  2  0
  2  3  1  0
  2  4  1  0
  4  5  1  0
  5  6  1  0
  6  7  1  0
  7  8  2  0
  7  9  2  0
  7 10  1  0
 10 11  2  0
 11 12  1  0
 12 13  2  0
 13 14  1  0
 14 15  2  0
 14 16  1  0
 13 17  1  0
 17 18  2  0
 18 10  1  0
M  CHG  1  14   1
M  END
>  <inspiration_score>  (7) 
0.645

>  <HIPPO Pose ID>  (7) 
63743

>  <ref_pdb>  (7) 
x0414a

>  <ref_mols>  (7) 
x0487b

>  <HIPPO Compound ID>  (7) 
565694

>  <energy_score>  (7) 
-242.467039

>  <tags>  (7) 
CpKRS_FrAncestor_bulkdock_iter1,CpKRS_FrAncestor_bulkdock_iter1_cluster_best5,fragmenstein_placed,CpKRS_FrAncestor_bulkdock_iter1_exported,BulkDock Fragalysis export

>  <inchikey>  (7) 
KSBRATUZXMWOAZ-UHFFFAOYSA-O

>  <placement_batch>  (7) 
CpKRS_FrAncestor_bulkdock_iter1_cluster_best5

>  <alias>  (7) 
C565694-P31

>  <name>  (7) 
C565694-P31

>  <smiles>  (7) 
O=C(O)CCNS(=O)(=O)c1ccc([N+](=O)O)cc1

>  <subsites>  (7) 


>  <distance_score>  (7) 
0.780428

$$$$
C565790-P54
     RDKit          3D

 18 18  0  0  0  0  0  0  0  0999 V2000
    7.2284  -38.2161    6.4915 C   0  0  0  0  0  0  0  0  0  0  0  0
    6.8985  -38.0835    7.9676 C   0  0  0  0  0  0  0  0  0  0  0  0
    7.2632  -36.7370    8.4159 N   0  0  0  0  0  0  0  0  0  0  0  0
    6.6291  -36.1796    9.8657 S   0  0  0  0  0  0  0  0  0  0  0  0
    7.2207  -34.8891   10.1549 O   0  0  0  0  0  0  0  0  0  0  0  0
    5.1900  -36.3249    9.8132 O   0  0  0  0  0  0  0  0  0  0  0  0
    7.2475  -37.3393   11.0661 C   0  0  0  0  0  0  0  0  0  0  0  0
    6.3292  -38.1718   11.7231 C   0  0  0  0  0  0  0  0  0  0  0  0
    6.7604  -39.0196   12.7490 C   0  0  0  0  0  0  0  0  0  0  0  0
    5.7533  -39.9266   13.3809 C   0  0  0  0  0  0  0  0  0  0  0  0
    4.9513  -40.3993   12.6801 O   0  0  0  0  0  0  0  0  0  0  0  0
    5.9573  -40.0655   14.8998 N   0  0  0  0  0  0  0  0  0  0  0  0
    5.2794  -40.8856   15.8585 C   0  0  0  0  0  0  0  0  0  0  0  0
    8.1121  -39.0417   13.0966 C   0  0  0  0  0  0  0  0  0  0  0  0
    9.0256  -38.2099   12.4331 C   0  0  0  0  0  0  0  0  0  0  0  0
    8.6058  -37.3461   11.4136 C   0  0  0  0  0  0  0  0  0  0  0  0
    9.4483  -36.5332   10.7040 O   0  0  0  0  0  0  0  0  0  0  0  0
   10.7505  -36.3243   11.2387 C   0  0  0  0  0  0  0  0  0  0  0  0
  1  2  1  0
  2  3  1  0
  3  4  1  0
  4  5  2  0
  4  6  2  0
  4  7  1  0
  7  8  2  0
  8  9  1  0
  9 10  1  0
 10 11  2  0
 10 12  1  0
 12 13  1  0
  9 14  2  0
 14 15  1  0
 15 16  2  0
 16 17  1  0
 17 18  1  0
 16  7  1  0
M  END
>  <inspiration_score>  (8) 
0.834

>  <HIPPO Pose ID>  (8) 
63894

>  <ref_pdb>  (8) 
x0414a

>  <ref_mols>  (8) 
x0639c

>  <HIPPO Compound ID>  (8) 
565790

>  <energy_score>  (8) 
-213.83682

>  <tags>  (8) 
CpKRS_FrAncestor_bulkdock_iter1,CpKRS_FrAncestor_bulkdock_iter1_cluster_best5,fragmenstein_placed,CpKRS_FrAncestor_bulkdock_iter1_exported,BulkDock Fragalysis export

>  <inchikey>  (8) 
WQLGWNAHVHEXBB-UHFFFAOYSA-N

>  <placement_batch>  (8) 
CpKRS_FrAncestor_bulkdock_iter1_cluster_best5

>  <alias>  (8) 
C565790-P54

>  <name>  (8) 
C565790-P54

>  <smiles>  (8) 
CCNS(=O)(=O)c1cc(C(=O)NC)ccc1OC

>  <subsites>  (8) 


>  <distance_score>  (8) 
0.239444

$$$$
C565883-P52
     RDKit          3D

 18 18  0  0  0  0  0  0  0  0999 V2000
   28.5520   16.1307   21.4012 C   0  0  0  0  0  0  0  0  0  0  0  0
   28.7322   14.7398   21.6323 O   0  0  0  0  0  0  0  0  0  0  0  0
   28.3454   14.3666   22.9531 C   0  0  0  0  0  0  0  0  0  0  0  0
   28.3367   12.8459   23.0323 C   0  0  0  0  0  0  0  0  0  0  0  0
   27.1633   12.2581   22.2498 C   0  0  0  0  0  0  0  0  0  0  0  0
   27.3597   10.7993   22.1108 N   0  0  0  0  0  0  0  0  0  0  0  0
   26.0771    9.9317   21.4380 S   0  0  0  0  0  0  0  0  0  0  0  0
   25.4422   10.7408   20.4234 O   0  0  0  0  0  0  0  0  0  0  0  0
   26.5487    8.5950   21.1443 O   0  0  0  0  0  0  0  0  0  0  0  0
   24.9512    9.7822   22.8051 C   0  0  0  0  0  0  0  0  0  0  0  0
   23.6567   10.3021   22.6956 C   0  0  0  0  0  0  0  0  0  0  0  0
   22.7331   10.0519   23.7076 C   0  0  0  0  0  0  0  0  0  0  0  0
   21.1307   10.6623   23.5892 Cl  0  0  0  0  0  0  0  0  0  0  0  0
   23.0883    9.2883   24.8181 C   0  0  0  0  0  0  0  0  0  0  0  0
   24.3837    8.7811   24.9266 C   0  0  0  0  0  0  0  0  0  0  0  0
   25.3195    9.0295   23.9226 C   0  0  0  0  0  0  0  0  0  0  0  0
   26.6087    8.5981   24.0791 O   0  0  0  0  0  0  0  0  0  0  0  0
   26.6974    7.1709   24.0206 C   0  0  0  0  0  0  0  0  0  0  0  0
  1  2  1  0
  2  3  1  0
  3  4  1  0
  4  5  1  0
  5  6  1  0
  6  7  1  0
  7  8  2  0
  7  9  2  0
  7 10  1  0
 10 11  2  0
 11 12  1  0
 12 13  1  0
 12 14  2  0
 14 15  1  0
 15 16  2  0
 16 17  1  0
 17 18  1  0
 16 10  1  0
M  END
>  <inspiration_score>  (9) 
0.44

>  <HIPPO Pose ID>  (9) 
64081

>  <ref_pdb>  (9) 
x0414a

>  <ref_mols>  (9) 
x0639a

>  <HIPPO Compound ID>  (9) 
565883

>  <energy_score>  (9) 
-318.475565

>  <tags>  (9) 
CpKRS_FrAncestor_bulkdock_iter1,CpKRS_FrAncestor_bulkdock_iter1_cluster_best5,fragmenstein_placed,CpKRS_FrAncestor_bulkdock_iter1_exported,BulkDock Fragalysis export

>  <inchikey>  (9) 
BNLQBQQEVMCILP-UHFFFAOYSA-N

>  <placement_batch>  (9) 
CpKRS_FrAncestor_bulkdock_iter1_cluster_best5

>  <alias>  (9) 
C565883-P52

>  <name>  (9) 
C565883-P52

>  <smiles>  (9) 
COCCCNS(=O)(=O)c1cc(Cl)ccc1OC

>  <subsites>  (9) 


>  <distance_score>  (9) 
0.592212

$$$$
C565907-P27
     RDKit          3D

 21 21  0  0  0  0  0  0  0  0999 V2000
   21.1264   21.2648   27.0094 C   0  0  0  0  0  0  0  0  0  0  0  0
   19.7005   21.2474   26.4870 C   0  0  0  0  0  0  0  0  0  0  0  0
   18.9839   22.1874   27.2698 O   0  0  0  0  0  0  0  0  0  0  0  0
   17.7217   22.5244   26.8959 C   0  0  0  0  0  0  0  0  0  0  0  0
   16.8529   21.7018   26.1647 C   0  0  0  0  0  0  0  0  0  0  0  0
   15.5199   22.0843   25.9354 C   0  0  0  0  0  0  0  0  0  0  0  0
   15.0517   23.2708   26.4905 C   0  0  0  0  0  0  0  0  0  0  0  0
   13.4559   23.9215   26.0379 S   0  0  0  0  0  0  0  0  0  0  0  0
   12.4867   23.4948   27.0117 O   0  0  0  0  0  0  0  0  0  0  0  0
   13.2835   23.6712   24.6250 O   0  0  0  0  0  0  0  0  0  0  0  0
   13.6612   25.5818   26.2445 N   0  0  0  0  0  0  0  0  0  0  0  0
   14.7409   26.2261   25.4913 C   0  0  0  0  0  0  0  0  0  0  0  0
   15.4911   27.3505   26.2043 C   0  0  0  0  0  0  0  0  0  0  0  0
   14.6005   28.3921   26.5914 O   0  0  0  0  0  0  0  0  0  0  0  0
   15.0422   29.6781   26.1640 C   0  0  0  0  0  0  0  0  0  0  0  0
   15.8982   24.0429   27.2905 C   0  0  0  0  0  0  0  0  0  0  0  0
   17.2435   23.7175   27.4323 C   0  0  0  0  0  0  0  0  0  0  0  0
   18.0321   24.6242   28.1385 N   0  0  0  0  0  0  0  0  0  0  0  0
   19.5580   24.9303   28.0395 C   0  0  0  0  0  0  0  0  0  0  0  0
   19.8530   25.9351   29.1299 C   0  0  0  0  0  0  0  0  0  0  0  0
   20.3662   24.5230   27.2980 O   0  0  0  0  0  0  0  0  0  0  0  0
  1  2  1  0
  2  3  1  0
  3  4  1  0
  4  5  2  0
  5  6  1  0
  6  7  2  0
  7  8  1  0
  8  9  2  0
  8 10  2  0
  8 11  1  0
 11 12  1  0
 12 13  1  0
 13 14  1  0
 14 15  1  0
  7 16  1  0
 16 17  2  0
 17 18  1  0
 18 19  1  0
 19 20  1  0
 19 21  2  0
 17  4  1  0
M  END
>  <inspiration_score>  (10) 
0.594

>  <HIPPO Pose ID>  (10) 
64133

>  <ref_pdb>  (10) 
x0414a

>  <ref_mols>  (10) 
x0483a

>  <HIPPO Compound ID>  (10) 
565907

>  <energy_score>  (10) 
-334.428375

>  <tags>  (10) 
CpKRS_FrAncestor_bulkdock_iter1,CpKRS_FrAncestor_bulkdock_iter1_cluster_best5,fragmenstein_placed,CpKRS_FrAncestor_bulkdock_iter1_exported,BulkDock Fragalysis export

>  <inchikey>  (10) 
JDKMLKGCJHLILB-UHFFFAOYSA-N

>  <placement_batch>  (10) 
CpKRS_FrAncestor_bulkdock_iter1_cluster_best5

>  <alias>  (10) 
C565907-P27

>  <name>  (10) 
C565907-P27

>  <smiles>  (10) 
CCOc1ccc(S(=O)(=O)NCCOC)cc1NC(C)=O

>  <subsites>  (10) 


>  <distance_score>  (10) 
0.674645

$$$$
C566330-P47
     RDKit          3D

 14 14  0  0  0  0  0  0  0  0999 V2000
    4.3796    2.4286   43.9441 C   0  0  0  0  0  0  0  0  0  0  0  0
    3.6537    3.2723   44.9332 C   0  0  0  0  0  0  0  0  0  0  0  0
    3.5542    2.8201   46.2405 N   0  0  0  0  0  0  0  0  0  0  0  0
    2.8386    3.6694   46.9429 C   0  0  0  0  0  0  0  0  0  0  0  0
    2.2858    5.0557   46.1234 S   0  0  0  0  0  0  0  0  0  0  0  0
    3.0302    4.4876   44.6814 C   0  0  0  0  0  0  0  0  0  0  0  0
    2.9611    5.2324   43.3806 C   0  0  0  0  0  0  0  0  0  0  0  0
    2.2466    6.4930   43.4901 N   0  0  0  0  0  0  0  0  0  0  0  0
    2.1574    7.2085   42.2261 C   0  0  0  0  0  0  0  0  0  0  0  0
    3.3780    8.0827   41.9064 C   0  0  0  0  0  0  0  0  0  0  0  0
    3.5853    8.2407   40.5048 O   0  0  0  0  0  0  0  0  0  0  0  0
    2.5185    8.9291   39.8456 C   0  0  0  0  0  0  0  0  0  0  0  0
    2.7838    8.8473   38.3485 C   0  0  0  0  0  0  0  0  0  0  0  0
    2.9648    7.4841   37.9632 O   0  0  0  0  0  0  0  0  0  0  0  0
  1  2  1  0
  2  3  1  0
  3  4  2  0
  4  5  1  0
  5  6  1  0
  6  7  1  0
  7  8  1  0
  8  9  1  0
  9 10  1  0
 10 11  1  0
 11 12  1  0
 12 13  1  0
 13 14  1  0
  6  2  2  0
M  END
>  <inspiration_score>  (11) 
0.685

>  <HIPPO Pose ID>  (11) 
65079

>  <ref_pdb>  (11) 
x0414a

>  <ref_mols>  (11) 
x0504c

>  <HIPPO Compound ID>  (11) 
566330

>  <energy_score>  (11) 
-99.034237

>  <tags>  (11) 
CpKRS_FrAncestor_bulkdock_iter1,CpKRS_FrAncestor_bulkdock_iter1_cluster_best5,fragmenstein_placed,CpKRS_FrAncestor_bulkdock_iter1_exported,BulkDock Fragalysis export

>  <inchikey>  (11) 
JUIZHGTWKRNZOU-UHFFFAOYSA-N

>  <placement_batch>  (11) 
CpKRS_FrAncestor_bulkdock_iter1_cluster_best5

>  <alias>  (11) 
C566330-P47

>  <name>  (11) 
C566330-P47

>  <smiles>  (11) 
Cc1ncsc1CNCCOCCO

>  <subsites>  (11) 


>  <distance_score>  (11) 
0.66175

$$$$
C566537-P54
     RDKit          3D

 14 14  0  0  0  0  0  0  0  0999 V2000
    4.4903  -38.4050    6.7094 C   0  0  0  0  0  0  0  0  0  0  0  0
    5.0638  -38.6692    8.3740 S   0  0  0  0  0  0  0  0  0  0  0  0
    5.1225  -40.0925    8.6139 O   0  0  0  0  0  0  0  0  0  0  0  0
    4.3671  -37.7756    9.2701 O   0  0  0  0  0  0  0  0  0  0  0  0
    6.6544  -38.1600    8.2775 N   0  0  0  0  0  0  0  0  0  0  0  0
    6.9475  -36.7359    8.4618 C   0  0  0  0  0  0  0  0  0  0  0  0
    7.0938  -36.2360    9.8803 C   0  0  0  0  0  0  0  0  0  0  0  0
    7.0507  -35.0397   10.1717 O   0  0  0  0  0  0  0  0  0  0  0  0
    7.4796  -37.1904   10.9394 C   0  0  0  0  0  0  0  0  0  0  0  0
    6.5067  -37.8721   11.6750 C   0  0  0  0  0  0  0  0  0  0  0  0
    6.8965  -38.7113   12.7177 C   0  0  0  0  0  0  0  0  0  0  0  0
    8.2483  -38.8494   13.0328 C   0  0  0  0  0  0  0  0  0  0  0  0
    9.2154  -38.1538   12.3058 C   0  0  0  0  0  0  0  0  0  0  0  0
    8.8341  -37.3189   11.2562 C   0  0  0  0  0  0  0  0  0  0  0  0
  1  2  1  0
  2  3  2  0
  2  4  2  0
  2  5  1  0
  5  6  1  0
  6  7  1  0
  7  8  2  0
  7  9  1  0
  9 10  2  0
 10 11  1  0
 11 12  2  0
 12 13  1  0
 13 14  2  0
 14  9  1  0
M  END
>  <inspiration_score>  (12) 
0.58

>  <HIPPO Pose ID>  (12) 
65556

>  <ref_pdb>  (12) 
x0414a

>  <ref_mols>  (12) 
x0639c

>  <HIPPO Compound ID>  (12) 
566537

>  <energy_score>  (12) 
-226.759444

>  <tags>  (12) 
CpKRS_FrAncestor_bulkdock_iter1,CpKRS_FrAncestor_bulkdock_iter1_cluster_best5,fragmenstein_placed,CpKRS_FrAncestor_bulkdock_iter1_exported,BulkDock Fragalysis export

>  <inchikey>  (12) 
MLZXNAIRHOPDTJ-UHFFFAOYSA-N

>  <placement_batch>  (12) 
CpKRS_FrAncestor_bulkdock_iter1_cluster_best5

>  <alias>  (12) 
C566537-P54

>  <name>  (12) 
C566537-P54

>  <smiles>  (12) 
CS(=O)(=O)NCC(=O)c1ccccc1

>  <subsites>  (12) 


>  <distance_score>  (12) 
0.617308

$$$$
C567012-P53
     RDKit          3D

 15 15  0  0  0  0  0  0  0  0999 V2000
   21.2388    8.3819   26.7511 O   0  0  0  0  0  0  0  0  0  0  0  0
   22.2824    7.9426   25.8833 N   0  0  0  0  0  0  0  0  0  0  0  0
   22.9752    6.7530   26.1876 O   0  0  0  0  0  0  0  0  0  0  0  0
   22.6711    8.7795   24.7751 C   0  0  0  0  0  0  0  0  0  0  0  0
   21.6930    9.6833   24.3474 C   0  0  0  0  0  0  0  0  0  0  0  0
   21.9735   10.5895   23.3432 C   0  0  0  0  0  0  0  0  0  0  0  0
   23.2367   10.6119   22.7670 C   0  0  0  0  0  0  0  0  0  0  0  0
   24.2119    9.7072   23.1754 C   0  0  0  0  0  0  0  0  0  0  0  0
   23.9481    8.7554   24.1748 C   0  0  0  0  0  0  0  0  0  0  0  0
   25.0663    7.7864   24.4915 C   0  0  0  0  0  0  0  0  0  0  0  0
   25.8588    8.1308   25.7357 C   0  0  0  0  0  0  0  0  0  0  0  0
   27.3362    7.1605   25.8962 S   0  0  0  0  0  0  0  0  0  0  0  0
   27.0291    5.7675   25.6529 O   0  0  0  0  0  0  0  0  0  0  0  0
   28.0250    7.5929   27.0963 O   0  0  0  0  0  0  0  0  0  0  0  0
   28.5877    7.7064   24.3683 Cl  0  0  0  0  0  0  0  0  0  0  0  0
  1  2  2  0
  2  3  1  0
  2  4  1  0
  4  5  2  0
  5  6  1  0
  6  7  2  0
  7  8  1  0
  8  9  2  0
  9 10  1  0
 10 11  1  0
 11 12  1  0
 12 13  2  0
 12 14  2  0
 12 15  1  0
  9  4  1  0
M  CHG  1   2   1
M  END
>  <inspiration_score>  (13) 
0.555

>  <HIPPO Pose ID>  (13) 
66646

>  <ref_pdb>  (13) 
x0414a

>  <ref_mols>  (13) 
x0639b

>  <HIPPO Compound ID>  (13) 
567012

>  <energy_score>  (13) 
-56.268559

>  <tags>  (13) 
CpKRS_FrAncestor_bulkdock_iter1,CpKRS_FrAncestor_bulkdock_iter1_cluster_best5,fragmenstein_placed,CpKRS_FrAncestor_bulkdock_iter1_exported,BulkDock Fragalysis export

>  <inchikey>  (13) 
YQLXKWLACZUJJG-UHFFFAOYSA-N

>  <placement_batch>  (13) 
CpKRS_FrAncestor_bulkdock_iter1_cluster_best5

>  <alias>  (13) 
C567012-P53

>  <name>  (13) 
C567012-P53

>  <smiles>  (13) 
O=[N+](O)c1ccccc1CCS(=O)(=O)Cl

>  <subsites>  (13) 


>  <distance_score>  (13) 
0.729163

$$$$
C567900-P22
     RDKit          3D

 14 14  0  0  0  0  0  0  0  0999 V2000
   24.9870    2.8474   24.7777 N   0  0  0  0  0  0  0  0  0  0  0  0
   25.2858    3.4381   26.3202 S   0  0  0  0  0  0  0  0  0  0  0  0
   24.1825    3.0486   27.1613 O   0  0  0  0  0  0  0  0  0  0  0  0
   26.6474    3.0340   26.5802 O   0  0  0  0  0  0  0  0  0  0  0  0
   25.2012    5.1860   26.0765 C   0  0  0  0  0  0  0  0  0  0  0  0
   24.1709    5.6934   25.2603 C   0  0  0  0  0  0  0  0  0  0  0  0
   24.1368    7.0526   24.8961 C   0  0  0  0  0  0  0  0  0  0  0  0
   22.9885    7.5772   24.0749 C   0  0  0  0  0  0  0  0  0  0  0  0
   21.8935    8.5365   25.0968 Cl  0  0  0  0  0  0  0  0  0  0  0  0
   25.1821    7.8766   25.3309 C   0  0  0  0  0  0  0  0  0  0  0  0
   25.3467    9.5107   24.7891 Cl  0  0  0  0  0  0  0  0  0  0  0  0
   26.1584    7.3864   26.2025 C   0  0  0  0  0  0  0  0  0  0  0  0
   26.1560    6.0491   26.6054 C   0  0  0  0  0  0  0  0  0  0  0  0
   27.3461    5.6142   27.7768 Cl  0  0  0  0  0  0  0  0  0  0  0  0
  1  2  1  0
  2  3  2  0
  2  4  2  0
  2  5  1  0
  5  6  2  0
  6  7  1  0
  7  8  1  0
  8  9  1  0
  7 10  2  0
 10 11  1  0
 10 12  1  0
 12 13  2  0
 13 14  1  0
 13  5  1  0
M  END
>  <inspiration_score>  (14) 
0.381

>  <HIPPO Pose ID>  (14) 
68899

>  <ref_pdb>  (14) 
x0414a

>  <ref_mols>  (14) 
x0472b

>  <HIPPO Compound ID>  (14) 
567900

>  <energy_score>  (14) 
-179.778897

>  <tags>  (14) 
CpKRS_FrAncestor_bulkdock_iter1,CpKRS_FrAncestor_bulkdock_iter1_cluster_best5,fragmenstein_placed,CpKRS_FrAncestor_bulkdock_iter1_exported,BulkDock Fragalysis export

>  <inchikey>  (14) 
HFZHDJJXEYNDPY-UHFFFAOYSA-N

>  <placement_batch>  (14) 
CpKRS_FrAncestor_bulkdock_iter1_cluster_best5

>  <alias>  (14) 
C567900-P22

>  <name>  (14) 
C567900-P22

>  <smiles>  (14) 
NS(=O)(=O)c1cc(CCl)c(Cl)cc1Cl

>  <subsites>  (14) 


>  <distance_score>  (14) 
0.662729

$$$$
C568000-P40
     RDKit          3D

 14 14  0  0  0  0  0  0  0  0999 V2000
    5.2548   -8.1024   21.9358 C   0  0  0  0  0  0  0  0  0  0  0  0
    5.8976   -8.0569   23.3059 C   0  0  0  0  0  0  0  0  0  0  0  0
    5.0908   -8.6545   24.3984 N   0  0  0  0  0  0  0  0  0  0  0  0
    5.4786   -8.1027   25.6920 C   0  0  0  0  0  0  0  0  0  0  0  0
    5.0319  -10.0554   24.3768 C   0  0  0  0  0  0  0  0  0  0  0  0
    4.4618  -10.8336   25.3801 C   0  0  0  0  0  0  0  0  0  0  0  0
    4.2701  -12.2134   25.1783 C   0  0  0  0  0  0  0  0  0  0  0  0
    3.4934  -12.9966   26.0768 C   0  0  0  0  0  0  0  0  0  0  0  0
    2.7378  -13.6285   26.6854 N   0  0  0  0  0  0  0  0  0  0  0  0
    4.6791  -12.8153   24.0108 C   0  0  0  0  0  0  0  0  0  0  0  0
    5.2329  -11.9728   23.0990 C   0  0  0  0  0  0  0  0  0  0  0  0
    5.5697  -12.4415   21.8718 O   0  0  0  0  0  0  0  0  0  0  0  0
    4.6704  -11.7750   21.0152 C   0  0  0  0  0  0  0  0  0  0  0  0
    5.4393  -10.6570   23.2696 N   0  0  0  0  0  0  0  0  0  0  0  0
  1  2  1  0
  2  3  1  0
  3  4  1  0
  3  5  1  0
  5  6  2  0
  6  7  1  0
  7  8  1  0
  8  9  3  0
  7 10  2  0
 10 11  1  0
 11 12  1  0
 12 13  1  0
 11 14  2  0
 14  5  1  0
M  END
>  <inspiration_score>  (15) 
0.46

>  <HIPPO Pose ID>  (15) 
69140

>  <ref_pdb>  (15) 
x0414a

>  <ref_mols>  (15) 
x0602b

>  <HIPPO Compound ID>  (15) 
568000

>  <energy_score>  (15) 
-52.52594

>  <tags>  (15) 
CpKRS_FrAncestor_bulkdock_iter1,CpKRS_FrAncestor_bulkdock_iter1_cluster_best5,fragmenstein_placed,CpKRS_FrAncestor_bulkdock_iter1_exported,BulkDock Fragalysis export

>  <inchikey>  (15) 
UQQAPTYWMQKIDP-UHFFFAOYSA-N

>  <placement_batch>  (15) 
CpKRS_FrAncestor_bulkdock_iter1_cluster_best5

>  <alias>  (15) 
C568000-P40

>  <name>  (15) 
C568000-P40

>  <smiles>  (15) 
CCN(C)c1cc(C#N)cc(OC)n1

>  <subsites>  (15) 


>  <distance_score>  (15) 
0.947429

$$$$
C568261-P36
     RDKit          3D

 15 15  0  0  0  0  0  0  0  0999 V2000
    2.9475   -9.2804   23.2557 C   0  0  0  0  0  0  0  0  0  0  0  0
    4.4103   -9.1248   23.6363 C   0  0  0  0  0  0  0  0  0  0  0  0
    5.2526   -8.5607   22.4982 C   0  0  0  0  0  0  0  0  0  0  0  0
    5.0849  -10.7025   24.1306 S   0  0  0  0  0  0  0  0  0  0  0  0
    6.3383  -10.4464   24.7996 O   0  0  0  0  0  0  0  0  0  0  0  0
    4.9689  -11.5934   22.9998 O   0  0  0  0  0  0  0  0  0  0  0  0
    3.9922  -11.1840   25.2916 N   0  0  0  0  0  0  0  0  0  0  0  0
    4.1930  -10.6674   26.6668 C   0  0  0  0  0  0  0  0  0  0  0  0
    3.5424  -11.5872   27.6890 C   0  0  0  0  0  0  0  0  0  0  0  0
    2.2317  -11.9997   27.3196 O   0  0  0  0  0  0  0  0  0  0  0  0
    2.1477  -12.6492   26.0351 C   0  0  1  0  0  0  0  0  0  0  0  0
    1.7944  -14.1203   26.2744 C   0  0  0  0  0  0  0  0  0  0  0  0
    1.0006  -11.9484   25.2416 C   0  0  0  0  0  0  0  0  0  0  0  0
   -0.2678  -11.7925   25.9730 N   0  0  0  0  0  0  0  0  0  0  0  0
    3.4692  -12.5695   25.2233 C   0  0  0  0  0  0  0  0  0  0  0  0
  1  2  1  0
  2  3  1  0
  2  4  1  0
  4  5  2  0
  4  6  2  0
  4  7  1  0
  7  8  1  0
  8  9  1  0
  9 10  1  0
 10 11  1  0
 11 12  1  1
 11 13  1  0
 13 14  1  0
 11 15  1  0
 15  7  1  0
M  END
>  <inspiration_score>  (16) 
0.475

>  <HIPPO Pose ID>  (16) 
69799

>  <ref_pdb>  (16) 
x0414a

>  <ref_mols>  (16) 
x0540a

>  <HIPPO Compound ID>  (16) 
568261

>  <energy_score>  (16) 
-49.117399

>  <tags>  (16) 
CpKRS_FrAncestor_bulkdock_iter1,CpKRS_FrAncestor_bulkdock_iter1_cluster_best5,fragmenstein_placed,CpKRS_FrAncestor_bulkdock_iter1_exported,BulkDock Fragalysis export

>  <inchikey>  (16) 
XVNMROSTJARRDM-UHFFFAOYSA-N

>  <placement_batch>  (16) 
CpKRS_FrAncestor_bulkdock_iter1_cluster_best5

>  <alias>  (16) 
C568261-P36

>  <name>  (16) 
C568261-P36

>  <smiles>  (16) 
CC(C)S(=O)(=O)N1CCO[C@@](C)(CN)C1

>  <subsites>  (16) 


>  <distance_score>  (16) 
0.91632

$$$$
C569209-P47
     RDKit          3D

 16 16  0  0  0  0  0  0  0  0999 V2000
    4.4296    8.3050   37.6035 C   0  0  0  0  0  0  0  0  0  0  0  0
    4.6633    8.8024   39.0380 C   0  0  0  0  0  0  0  0  0  0  0  0
    6.1603    8.7253   39.3444 C   0  0  0  0  0  0  0  0  0  0  0  0
    4.1345   10.2366   39.1567 C   0  0  0  0  0  0  0  0  0  0  0  0
    3.8919    7.8951   39.8714 O   0  0  0  0  0  0  0  0  0  0  0  0
    3.8983    8.0012   41.2264 C   0  0  0  0  0  0  0  0  0  0  0  0
    4.4904    8.7917   41.8293 O   0  0  0  0  0  0  0  0  0  0  0  0
    2.9665    6.9037   41.6953 N   0  0  0  0  0  0  0  0  0  0  0  0
    2.6248    6.4692   43.0270 C   0  0  0  0  0  0  0  0  0  0  0  0
    3.1362    5.0544   43.3032 C   0  0  0  0  0  0  0  0  0  0  0  0
    3.6200    4.3765   42.3941 O   0  0  0  0  0  0  0  0  0  0  0  0
    3.0313    4.5196   44.6485 C   0  0  0  0  0  0  0  0  0  0  0  0
    3.5651    3.3273   45.1010 C   0  0  0  0  0  0  0  0  0  0  0  0
    3.3199    3.0153   46.4237 N   0  0  0  0  0  0  0  0  0  0  0  0
    2.5943    3.9708   46.9614 C   0  0  0  0  0  0  0  0  0  0  0  0
    2.1930    5.2814   45.9298 S   0  0  0  0  0  0  0  0  0  0  0  0
  1  2  1  0
  2  3  1  0
  2  4  1  0
  2  5  1  0
  5  6  1  0
  6  7  2  0
  6  8  1  0
  8  9  1  0
  9 10  1  0
 10 11  2  0
 10 12  1  0
 12 13  2  0
 13 14  1  0
 14 15  2  0
 15 16  1  0
 16 12  1  0
M  END
>  <inspiration_score>  (17) 
0.648

>  <HIPPO Pose ID>  (17) 
72461

>  <ref_pdb>  (17) 
x0414a

>  <ref_mols>  (17) 
x0504c

>  <HIPPO Compound ID>  (17) 
569209

>  <energy_score>  (17) 
-200.341956

>  <tags>  (17) 
CpKRS_FrAncestor_bulkdock_iter1,CpKRS_FrAncestor_bulkdock_iter1_cluster_best5,fragmenstein_placed,CpKRS_FrAncestor_bulkdock_iter1_exported,BulkDock Fragalysis export

>  <inchikey>  (17) 
AZCLIGZZHHUUQH-UHFFFAOYSA-N

>  <placement_batch>  (17) 
CpKRS_FrAncestor_bulkdock_iter1_cluster_best5

>  <alias>  (17) 
C569209-P47

>  <name>  (17) 
C569209-P47

>  <smiles>  (17) 
CC(C)(C)OC(=O)NCC(=O)c1cncs1

>  <subsites>  (17) 


>  <distance_score>  (17) 
0.831357

$$$$
C569492-P32
     RDKit          3D

 18 18  0  0  0  0  0  0  0  0999 V2000
    0.5460  -21.6623   10.8149 C   0  0  0  0  0  0  0  0  0  0  0  0
   -0.0585  -22.1115   12.0582 N   0  0  0  0  0  0  0  0  0  0  0  0
    0.5942  -23.3126   12.5651 C   0  0  0  0  0  0  0  0  0  0  0  0
    0.1177  -23.6215   13.9853 C   0  0  0  0  0  0  0  0  0  0  0  0
    0.8874  -24.8132   14.5256 C   0  0  0  0  0  0  0  0  0  0  0  0
    0.5526  -25.0378   15.9327 N   0  0  0  0  0  0  0  0  0  0  0  0
    1.4463  -26.2162   16.7140 S   0  0  0  0  0  0  0  0  0  0  0  0
    0.5040  -26.9251   17.5496 O   0  0  0  0  0  0  0  0  0  0  0  0
    2.2391  -26.8884   15.7083 O   0  0  0  0  0  0  0  0  0  0  0  0
    2.5336  -25.2804   17.7509 C   0  0  0  0  0  0  0  0  0  0  0  0
    2.5677  -25.5430   19.1219 C   0  0  0  0  0  0  0  0  0  0  0  0
    3.3966  -24.7808   19.9410 C   0  0  0  0  0  0  0  0  0  0  0  0
    4.1821  -23.7611   19.3835 C   0  0  0  0  0  0  0  0  0  0  0  0
    5.0681  -23.0265   20.2455 N   0  0  0  0  0  0  0  0  0  0  0  0
    5.3966  -23.5947   21.4918 O   0  0  0  0  0  0  0  0  0  0  0  0
    5.7458  -21.8728   19.8156 O   0  0  0  0  0  0  0  0  0  0  0  0
    4.1561  -23.5039   18.0142 C   0  0  0  0  0  0  0  0  0  0  0  0
    3.3298  -24.2720   17.1950 C   0  0  0  0  0  0  0  0  0  0  0  0
  1  2  1  0
  2  3  1  0
  3  4  1  0
  4  5  1  0
  5  6  1  0
  6  7  1  0
  7  8  2  0
  7  9  2  0
  7 10  1  0
 10 11  2  0
 11 12  1  0
 12 13  2  0
 13 14  1  0
 14 15  2  0
 14 16  1  0
 13 17  1  0
 17 18  2  0
 18 10  1  0
M  CHG  1  14   1
M  END
>  <inspiration_score>  (18) 
0.673

>  <HIPPO Pose ID>  (18) 
73139

>  <ref_pdb>  (18) 
x0487b

>  <ref_mols>  (18) 
x0487a

>  <HIPPO Compound ID>  (18) 
569492

>  <energy_score>  (18) 
-168.217598

>  <tags>  (18) 
CpKRS_FrAncestor_bulkdock_iter1,CpKRS_FrAncestor_bulkdock_iter1_cluster_best5,fragmenstein_placed,CpKRS_FrAncestor_bulkdock_iter1_exported,BulkDock Fragalysis export

>  <inchikey>  (18) 
IQCAUAFRMNYXIC-UHFFFAOYSA-N

>  <placement_batch>  (18) 
CpKRS_FrAncestor_bulkdock_iter1_cluster_best5

>  <alias>  (18) 
C569492-P32

>  <name>  (18) 
C569492-P32

>  <smiles>  (18) 
CNCCCNS(=O)(=O)c1ccc([N+](=O)O)cc1

>  <subsites>  (18) 


>  <distance_score>  (18) 
0.593517

$$$$
C569493-P32
     RDKit          3D

 17 17  0  0  0  0  0  0  0  0999 V2000
    0.5878  -22.7295   12.5757 N   0  0  0  0  0  0  0  0  0  0  0  0
   -0.3479  -22.8434   13.6982 C   0  0  0  0  0  0  0  0  0  0  0  0
   -0.7234  -24.2914   13.9718 C   0  0  0  0  0  0  0  0  0  0  0  0
    0.4037  -25.1805   14.4712 C   0  0  0  0  0  0  0  0  0  0  0  0
    0.6704  -24.9308   15.9012 N   0  0  0  0  0  0  0  0  0  0  0  0
    1.6262  -26.1266   16.6056 S   0  0  0  0  0  0  0  0  0  0  0  0
    2.4835  -26.6618   15.5717 O   0  0  0  0  0  0  0  0  0  0  0  0
    0.7170  -26.9558   17.3621 O   0  0  0  0  0  0  0  0  0  0  0  0
    2.6349  -25.1982   17.7096 C   0  0  0  0  0  0  0  0  0  0  0  0
    3.4117  -24.1576   17.1892 C   0  0  0  0  0  0  0  0  0  0  0  0
    4.2145  -23.4031   18.0372 C   0  0  0  0  0  0  0  0  0  0  0  0
    4.2277  -23.7030   19.3975 C   0  0  0  0  0  0  0  0  0  0  0  0
    5.1039  -22.9919   20.2858 N   0  0  0  0  0  0  0  0  0  0  0  0
    5.4225  -23.5982   21.5154 O   0  0  0  0  0  0  0  0  0  0  0  0
    5.7826  -21.8244   19.8957 O   0  0  0  0  0  0  0  0  0  0  0  0
    3.4487  -24.7480   19.9195 C   0  0  0  0  0  0  0  0  0  0  0  0
    2.6471  -25.5029   19.0701 C   0  0  0  0  0  0  0  0  0  0  0  0
  1  2  1  0
  2  3  1  0
  3  4  1  0
  4  5  1  0
  5  6  1  0
  6  7  2  0
  6  8  2  0
  6  9  1  0
  9 10  2  0
 10 11  1  0
 11 12  2  0
 12 13  1  0
 13 14  2  0
 13 15  1  0
 12 16  1  0
 16 17  2  0
 17  9  1  0
M  CHG  1  13   1
M  END
>  <inspiration_score>  (19) 
0.667

>  <HIPPO Pose ID>  (19) 
73141

>  <ref_pdb>  (19) 
x0487b

>  <ref_mols>  (19) 
x0487a

>  <HIPPO Compound ID>  (19) 
569493

>  <energy_score>  (19) 
-312.964012

>  <tags>  (19) 
CpKRS_FrAncestor_bulkdock_iter1,CpKRS_FrAncestor_bulkdock_iter1_cluster_best5,fragmenstein_placed,CpKRS_FrAncestor_bulkdock_iter1_exported,BulkDock Fragalysis export

>  <inchikey>  (19) 
WIYKNVMJHFPCEU-UHFFFAOYSA-N

>  <placement_batch>  (19) 
CpKRS_FrAncestor_bulkdock_iter1_cluster_best5

>  <alias>  (19) 
C569493-P32

>  <name>  (19) 
C569493-P32

>  <smiles>  (19) 
NCCCNS(=O)(=O)c1ccc([N+](=O)O)cc1

>  <subsites>  (19) 


>  <distance_score>  (19) 
0.942482

$$$$
C569591-P23
     RDKit          3D

 16 16  0  0  0  0  0  0  0  0999 V2000
   26.2631    2.7312   28.8248 C   0  0  0  0  0  0  0  0  0  0  0  0
   26.5257    4.2171   28.6806 C   0  0  0  0  0  0  0  0  0  0  0  0
   27.0216    4.4763   27.3326 N   0  0  0  0  0  0  0  0  0  0  0  0
   27.1264    6.0377   26.7694 S   0  0  0  0  0  0  0  0  0  0  0  0
   28.0373    6.0048   25.6464 O   0  0  0  0  0  0  0  0  0  0  0  0
   27.3648    6.9021   27.9075 O   0  0  0  0  0  0  0  0  0  0  0  0
   25.5524    6.4805   26.1189 C   0  0  0  0  0  0  0  0  0  0  0  0
   25.3475    7.8369   25.8310 C   0  0  0  0  0  0  0  0  0  0  0  0
   24.1211    8.2646   25.3233 C   0  0  0  0  0  0  0  0  0  0  0  0
   23.0955    7.3396   25.1106 C   0  0  0  0  0  0  0  0  0  0  0  0
   21.8250    7.8065   24.6032 N   0  0  0  0  0  0  0  0  0  0  0  0
   21.7108    9.1307   24.1191 O   0  0  0  0  0  0  0  0  0  0  0  0
   20.6754    6.9907   24.6220 O   0  0  0  0  0  0  0  0  0  0  0  0
   23.3111    5.9850   25.3705 C   0  0  0  0  0  0  0  0  0  0  0  0
   24.5394    5.5610   25.8834 C   0  0  0  0  0  0  0  0  0  0  0  0
   24.6933    4.2555   26.1318 F   0  0  0  0  0  0  0  0  0  0  0  0
  1  2  1  0
  2  3  1  0
  3  4  1  0
  4  5  2  0
  4  6  2  0
  4  7  1  0
  7  8  2  0
  8  9  1  0
  9 10  2  0
 10 11  1  0
 11 12  2  0
 11 13  1  0
 10 14  1  0
 14 15  2  0
 15 16  1  0
 15  7  1  0
M  CHG  1  11   1
M  END
>  <inspiration_score>  (20) 
0.479

>  <HIPPO Pose ID>  (20) 
73377

>  <ref_pdb>  (20) 
x0487b

>  <ref_mols>  (20) 
x0472c

>  <HIPPO Compound ID>  (20) 
569591

>  <energy_score>  (20) 
-166.630838

>  <tags>  (20) 
CpKRS_FrAncestor_bulkdock_iter1,CpKRS_FrAncestor_bulkdock_iter1_cluster_best5,fragmenstein_placed,CpKRS_FrAncestor_bulkdock_iter1_exported,BulkDock Fragalysis export

>  <inchikey>  (20) 
JGTZRMFLBCGLLO-UHFFFAOYSA-N

>  <placement_batch>  (20) 
CpKRS_FrAncestor_bulkdock_iter1_cluster_best5

>  <alias>  (20) 
C569591-P23

>  <name>  (20) 
C569591-P23

>  <smiles>  (20) 
CCNS(=O)(=O)c1ccc([N+](=O)O)cc1F

>  <subsites>  (20) 


>  <distance_score>  (20) 
0.479894

$$$$
C569612-P23
     RDKit          3D

 15 15  0  0  0  0  0  0  0  0999 V2000
   30.4480    6.9161   29.1807 C   0  0  0  0  0  0  0  0  0  0  0  0
   29.1318    7.6469   28.9756 C   0  0  0  0  0  0  0  0  0  0  0  0
   28.8808    7.9456   27.4999 C   0  0  0  0  0  0  0  0  0  0  0  0
   27.6192    8.6926   27.3822 N   0  0  0  0  0  0  0  0  0  0  0  0
   26.9793    8.9269   25.8381 S   0  0  0  0  0  0  0  0  0  0  0  0
   27.9657    8.5500   24.8533 O   0  0  0  0  0  0  0  0  0  0  0  0
   26.4116   10.2595   25.8901 O   0  0  0  0  0  0  0  0  0  0  0  0
   25.6383    7.7710   25.7692 C   0  0  0  0  0  0  0  0  0  0  0  0
   24.3587    8.2155   25.4106 C   0  0  0  0  0  0  0  0  0  0  0  0
   23.2944    7.3097   25.3336 C   0  0  0  0  0  0  0  0  0  0  0  0
   21.9061    7.7777   25.0009 C   0  0  0  0  0  0  0  0  0  0  0  0
   23.5349    5.9609   25.6168 C   0  0  0  0  0  0  0  0  0  0  0  0
   24.8073    5.5323   25.9914 C   0  0  0  0  0  0  0  0  0  0  0  0
   25.0944    3.7162   26.4086 Br  0  0  0  0  0  0  0  0  0  0  0  0
   25.8673    6.4284   26.0674 C   0  0  0  0  0  0  0  0  0  0  0  0
  1  2  1  0
  2  3  1  0
  3  4  1  0
  4  5  1  0
  5  6  2  0
  5  7  2  0
  5  8  1  0
  8  9  2  0
  9 10  1  0
 10 11  1  0
 10 12  2  0
 12 13  1  0
 13 14  1  0
 13 15  2  0
 15  8  1  0
M  END
>  <inspiration_score>  (21) 
0.445

>  <HIPPO Pose ID>  (21) 
73446

>  <ref_pdb>  (21) 
x0487b

>  <ref_mols>  (21) 
x0472c

>  <HIPPO Compound ID>  (21) 
569612

>  <energy_score>  (21) 
-136.848327

>  <tags>  (21) 
CpKRS_FrAncestor_bulkdock_iter1,CpKRS_FrAncestor_bulkdock_iter1_cluster_best5,fragmenstein_placed,CpKRS_FrAncestor_bulkdock_iter1_exported,BulkDock Fragalysis export

>  <inchikey>  (21) 
KNYBNTAZSNRLLP-UHFFFAOYSA-N

>  <placement_batch>  (21) 
CpKRS_FrAncestor_bulkdock_iter1_cluster_best5

>  <alias>  (21) 
C569612-P23

>  <name>  (21) 
C569612-P23

>  <smiles>  (21) 
CCCNS(=O)(=O)c1cc(C)cc(Br)c1

>  <subsites>  (21) 


>  <distance_score>  (21) 
0.406366

$$$$
C569650-P23
     RDKit          3D

 14 14  0  0  0  0  0  0  0  0999 V2000
   27.4458    2.6895   28.8037 C   0  0  0  0  0  0  0  0  0  0  0  0
   26.3486    3.7241   28.6433 C   0  0  0  0  0  0  0  0  0  0  0  0
   26.9099    5.0226   28.2527 N   0  0  0  0  0  0  0  0  0  0  0  0
   27.2278    5.3544   26.6353 S   0  0  0  0  0  0  0  0  0  0  0  0
   27.4207    4.1218   25.9106 O   0  0  0  0  0  0  0  0  0  0  0  0
   28.2401    6.3899   26.6638 O   0  0  0  0  0  0  0  0  0  0  0  0
   25.7195    6.1003   26.0772 C   0  0  0  0  0  0  0  0  0  0  0  0
   24.5804    5.3147   25.9183 C   0  0  0  0  0  0  0  0  0  0  0  0
   23.4037    5.9010   25.4546 C   0  0  0  0  0  0  0  0  0  0  0  0
   23.3451    7.2642   25.1315 C   0  0  0  0  0  0  0  0  0  0  0  0
   22.0377    7.8436   24.6644 C   0  0  0  0  0  0  0  0  0  0  0  0
   24.5317    8.0091   25.1928 C   0  0  0  0  0  0  0  0  0  0  0  0
   24.6501    9.7592   24.4653 Br  0  0  0  0  0  0  0  0  0  0  0  0
   25.7072    7.4443   25.6974 C   0  0  0  0  0  0  0  0  0  0  0  0
  1  2  1  0
  2  3  1  0
  3  4  1  0
  4  5  2  0
  4  6  2  0
  4  7  1  0
  7  8  2  0
  8  9  1  0
  9 10  2  0
 10 11  1  0
 10 12  1  0
 12 13  1  0
 12 14  2  0
 14  7  1  0
M  END
>  <inspiration_score>  (22) 
0.338

>  <HIPPO Pose ID>  (22) 
73566

>  <ref_pdb>  (22) 
x0487b

>  <ref_mols>  (22) 
x0472c

>  <HIPPO Compound ID>  (22) 
569650

>  <energy_score>  (22) 
-128.426021

>  <tags>  (22) 
CpKRS_FrAncestor_bulkdock_iter1,CpKRS_FrAncestor_bulkdock_iter1_cluster_best5,fragmenstein_placed,CpKRS_FrAncestor_bulkdock_iter1_exported,BulkDock Fragalysis export

>  <inchikey>  (22) 
XHGFQYXLKWCUJI-UHFFFAOYSA-N

>  <placement_batch>  (22) 
CpKRS_FrAncestor_bulkdock_iter1_cluster_best5

>  <alias>  (22) 
C569650-P23

>  <name>  (22) 
C569650-P23

>  <smiles>  (22) 
CCNS(=O)(=O)c1ccc(C)c(Br)c1

>  <subsites>  (22) 


>  <distance_score>  (22) 
0.79188

$$$$
C311424-P27
     RDKit          3D

 15 15  0  0  0  0  0  0  0  0999 V2000
   14.6972   21.5376   24.3367 C   0  0  0  0  0  0  0  0  0  0  0  0
   13.4204   22.2729   24.6965 C   0  0  0  0  0  0  0  0  0  0  0  0
   13.6130   23.7013   24.6196 N   0  0  0  0  0  0  0  0  0  0  0  0
   13.6467   24.5765   26.0415 S   0  0  0  0  0  0  0  0  0  0  0  0
   12.7414   23.9556   26.9751 O   0  0  0  0  0  0  0  0  0  0  0  0
   13.4392   25.9338   25.5926 O   0  0  0  0  0  0  0  0  0  0  0  0
   15.3073   24.3593   26.5532 C   0  0  0  0  0  0  0  0  0  0  0  0
   15.7798   23.0850   26.8401 C   0  0  0  0  0  0  0  0  0  0  0  0
   14.9544   22.0339   26.8763 F   0  0  0  0  0  0  0  0  0  0  0  0
   17.1210   22.8279   27.0941 C   0  0  0  0  0  0  0  0  0  0  0  0
   18.0014   23.8862   27.1091 C   0  0  0  0  0  0  0  0  0  0  0  0
   19.2962   23.6450   27.3402 F   0  0  0  0  0  0  0  0  0  0  0  0
   17.5538   25.1807   26.8732 C   0  0  0  0  0  0  0  0  0  0  0  0
   16.2041   25.4103   26.5912 C   0  0  0  0  0  0  0  0  0  0  0  0
   15.8268   26.6656   26.3281 F   0  0  0  0  0  0  0  0  0  0  0  0
  1  2  1  0
  2  3  1  0
  3  4  1  0
  4  5  2  0
  4  6  2  0
  4  7  1  0
  7  8  2  0
  8  9  1  0
  8 10  1  0
 10 11  2  0
 11 12  1  0
 11 13  1  0
 13 14  2  0
 14 15  1  0
 14  7  1  0
M  END
>  <inspiration_score>  (23) 
0.395

>  <HIPPO Pose ID>  (23) 
74311

>  <ref_pdb>  (23) 
x0487b

>  <ref_mols>  (23) 
x0483a

>  <HIPPO Compound ID>  (23) 
311424

>  <energy_score>  (23) 
-332.422268

>  <tags>  (23) 
CpKRS_FrAncestor_bulkdock_iter1,CpKRS_FrAncestor_bulkdock_iter1_cluster_best5,fragmenstein_placed,CpKRS_FrAncestor_bulkdock_iter1_exported,BulkDock Fragalysis export

>  <inchikey>  (23) 
IYLWBZKDOFHNRW-UHFFFAOYSA-N

>  <placement_batch>  (23) 
CpKRS_FrAncestor_bulkdock_iter1_cluster_best5

>  <alias>  (23) 
C311424-P27

>  <name>  (23) 
C311424-P27

>  <smiles>  (23) 
CCNS(=O)(=O)c1c(F)cc(F)cc1F

>  <subsites>  (23) 


>  <distance_score>  (23) 
0.899457

$$$$
C134226-P54
     RDKit          3D

 16 16  0  0  0  0  0  0  0  0999 V2000
    6.9313  -38.2719    6.4299 C   0  0  0  0  0  0  0  0  0  0  0  0
    6.7429  -38.1605    7.9321 C   0  0  0  0  0  0  0  0  0  0  0  0
    7.1251  -36.8158    8.3608 N   0  0  0  0  0  0  0  0  0  0  0  0
    6.5615  -36.2239    9.8161 S   0  0  0  0  0  0  0  0  0  0  0  0
    7.2071  -34.9579   10.0799 O   0  0  0  0  0  0  0  0  0  0  0  0
    5.1198  -36.3344    9.8252 O   0  0  0  0  0  0  0  0  0  0  0  0
    7.2041  -37.3848   11.0134 C   0  0  0  0  0  0  0  0  0  0  0  0
    6.2828  -38.2139   11.6739 C   0  0  0  0  0  0  0  0  0  0  0  0
    6.7057  -39.0384   12.7133 C   0  0  0  0  0  0  0  0  0  0  0  0
    8.0409  -39.0342   13.1011 C   0  0  0  0  0  0  0  0  0  0  0  0
    8.9609  -38.2184   12.4413 C   0  0  0  0  0  0  0  0  0  0  0  0
    8.5648  -37.3832   11.3796 C   0  0  0  0  0  0  0  0  0  0  0  0
    9.6034  -36.5046   10.7280 C   0  0  0  0  0  0  0  0  0  0  0  0
    9.5949  -35.2322   11.1961 F   0  0  0  0  0  0  0  0  0  0  0  0
   10.8765  -36.9550   10.9317 F   0  0  0  0  0  0  0  0  0  0  0  0
    9.4799  -36.4302    9.3728 F   0  0  0  0  0  0  0  0  0  0  0  0
  1  2  1  0
  2  3  1  0
  3  4  1  0
  4  5  2  0
  4  6  2  0
  4  7  1  0
  7  8  2  0
  8  9  1  0
  9 10  2  0
 10 11  1  0
 11 12  2  0
 12 13  1  0
 13 14  1  0
 13 15  1  0
 13 16  1  0
 12  7  1  0
M  END
>  <inspiration_score>  (24) 
0.866

>  <HIPPO Pose ID>  (24) 
74341

>  <ref_pdb>  (24) 
x0487b

>  <ref_mols>  (24) 
x0639c

>  <HIPPO Compound ID>  (24) 
134226

>  <energy_score>  (24) 
-232.148788

>  <tags>  (24) 
CpKRS_FrAncestor_bulkdock_iter1,CpKRS_FrAncestor_bulkdock_iter1_cluster_best5,fragmenstein_placed,CpKRS_FrAncestor_bulkdock_iter1_exported,BulkDock Fragalysis export

>  <inchikey>  (24) 
MIYZJAGXTUTXPR-UHFFFAOYSA-N

>  <placement_batch>  (24) 
CpKRS_FrAncestor_bulkdock_iter1_cluster_best5

>  <alias>  (24) 
C134226-P54

>  <name>  (24) 
C134226-P54

>  <smiles>  (24) 
CCNS(=O)(=O)c1ccccc1C(F)(F)F

>  <subsites>  (24) 


>  <distance_score>  (24) 
0.234242

$$$$
C570262-P48
     RDKit          3D

 15 15  0  0  0  0  0  0  0  0999 V2000
    4.5120  -11.7061   22.5589 C   0  0  0  0  0  0  0  0  0  0  0  0
    4.1076  -12.0374   23.9170 N   0  0  0  0  0  0  0  0  0  0  0  0
    4.0443  -13.4934   24.0890 C   0  0  0  0  0  0  0  0  0  0  0  0
    3.2710  -13.8543   25.3135 C   0  0  0  0  0  0  0  0  0  0  0  0
    1.6785  -13.2421   25.5334 S   0  0  0  0  0  0  0  0  0  0  0  0
    1.6128  -14.0124   27.0456 C   0  0  0  0  0  0  0  0  0  0  0  0
    0.4870  -13.8064   27.9283 C   0  0  0  0  0  0  0  0  0  0  0  0
   -0.5978  -13.3369   27.5723 O   0  0  0  0  0  0  0  0  0  0  0  0
    0.7246  -14.2072   29.3720 C   0  0  0  0  0  0  0  0  0  0  0  0
    0.5754  -15.6948   29.4903 C   0  0  0  0  0  0  0  0  0  0  0  0
    0.6758  -16.2429   30.7822 O   0  0  0  0  0  0  0  0  0  0  0  0
   -0.4664  -16.0249   31.5948 C   0  0  0  0  0  0  0  0  0  0  0  0
    2.6369  -14.7773   27.3559 N   0  0  0  0  0  0  0  0  0  0  0  0
    3.5993  -14.6909   26.3682 C   0  0  0  0  0  0  0  0  0  0  0  0
    4.8448  -15.4786   26.5444 C   0  0  0  0  0  0  0  0  0  0  0  0
  1  2  1  0
  2  3  1  0
  3  4  1  0
  4  5  1  0
  5  6  1  0
  6  7  1  0
  7  8  2  0
  7  9  1  0
  9 10  1  0
 10 11  1  0
 11 12  1  0
  6 13  2  0
 13 14  1  0
 14 15  1  0
 14  4  2  0
M  END
>  <inspiration_score>  (25) 
0.545

>  <HIPPO Pose ID>  (25) 
75158

>  <ref_pdb>  (25) 
x0487b

>  <ref_mols>  (25) 
x0504a

>  <HIPPO Compound ID>  (25) 
570262

>  <energy_score>  (25) 
-176.684657

>  <tags>  (25) 
CpKRS_FrAncestor_bulkdock_iter1,CpKRS_FrAncestor_bulkdock_iter1_cluster_best5,fragmenstein_placed,CpKRS_FrAncestor_bulkdock_iter1_exported,BulkDock Fragalysis export

>  <inchikey>  (25) 
XLXAUFFXHAITJK-UHFFFAOYSA-N

>  <placement_batch>  (25) 
CpKRS_FrAncestor_bulkdock_iter1_cluster_best5

>  <alias>  (25) 
C570262-P48

>  <name>  (25) 
C570262-P48

>  <smiles>  (25) 
CNCc1sc(C(=O)CCOC)nc1C

>  <subsites>  (25) 


>  <distance_score>  (25) 
0.919759

$$$$
C570269-P49
     RDKit          3D

 14 14  0  0  0  0  0  0  0  0999 V2000
   -0.8446  -16.5284   32.3828 C   0  0  0  0  0  0  0  0  0  0  0  0
    0.0335  -15.5770   31.8324 O   0  0  0  0  0  0  0  0  0  0  0  0
    0.0923  -15.4840   30.4404 C   0  0  0  0  0  0  0  0  0  0  0  0
    1.3871  -15.2845   29.6749 C   0  0  0  0  0  0  0  0  0  0  0  0
    1.0135  -14.6821   28.3053 C   0  0  0  0  0  0  0  0  0  0  0  0
   -0.1379  -14.2999   28.0559 O   0  0  0  0  0  0  0  0  0  0  0  0
    2.0670  -14.5858   27.3281 C   0  0  0  0  0  0  0  0  0  0  0  0
    3.1947  -15.2462   27.4122 N   0  0  0  0  0  0  0  0  0  0  0  0
    3.9929  -14.9203   26.3278 C   0  0  0  0  0  0  0  0  0  0  0  0
    5.3117  -15.5902   26.2471 C   0  0  0  0  0  0  0  0  0  0  0  0
    3.4497  -13.9959   25.4442 C   0  0  0  0  0  0  0  0  0  0  0  0
    4.0253  -13.3976   24.2006 C   0  0  0  0  0  0  0  0  0  0  0  0
    3.8300  -11.9514   24.1341 N   0  0  0  0  0  0  0  0  0  0  0  0
    1.8572  -13.6014   25.9485 S   0  0  0  0  0  0  0  0  0  0  0  0
  1  2  1  0
  2  3  1  0
  3  4  1  0
  4  5  1  0
  5  6  2  0
  5  7  1  0
  7  8  2  0
  8  9  1  0
  9 10  1  0
  9 11  2  0
 11 12  1  0
 12 13  1  0
 11 14  1  0
 14  7  1  0
M  END
>  <inspiration_score>  (26) 
0.477

>  <HIPPO Pose ID>  (26) 
75180

>  <ref_pdb>  (26) 
x0487b

>  <ref_mols>  (26) 
x0504b

>  <HIPPO Compound ID>  (26) 
570269

>  <energy_score>  (26) 
-165.548289

>  <tags>  (26) 
CpKRS_FrAncestor_bulkdock_iter1,CpKRS_FrAncestor_bulkdock_iter1_cluster_best5,fragmenstein_placed,CpKRS_FrAncestor_bulkdock_iter1_exported,BulkDock Fragalysis export

>  <inchikey>  (26) 
ZBQYRUYUTTWWQM-UHFFFAOYSA-N

>  <placement_batch>  (26) 
CpKRS_FrAncestor_bulkdock_iter1_cluster_best5

>  <alias>  (26) 
C570269-P49

>  <name>  (26) 
C570269-P49

>  <smiles>  (26) 
COCCC(=O)c1nc(C)c(CN)s1

>  <subsites>  (26) 


>  <distance_score>  (26) 
0.884552

$$$$
C570296-P21
     RDKit          3D

 16 16  0  0  0  0  0  0  0  0999 V2000
   29.3639    9.7202   22.6226 C   0  0  0  0  0  0  0  0  0  0  0  0
   27.8897   10.0122   22.8486 C   0  0  0  0  0  0  0  0  0  0  0  0
   27.1029    8.7349   23.1198 C   0  0  0  0  0  0  0  0  0  0  0  0
   25.6939    9.0553   23.3086 N   0  0  0  0  0  0  0  0  0  0  0  0
   25.0347    9.1627   24.8406 S   0  0  0  0  0  0  0  0  0  0  0  0
   23.7115    9.7193   24.6690 O   0  0  0  0  0  0  0  0  0  0  0  0
   26.0055    9.8122   25.6938 O   0  0  0  0  0  0  0  0  0  0  0  0
   24.8280    7.4766   25.2875 C   0  0  0  0  0  0  0  0  0  0  0  0
   23.8550    6.7330   24.6175 C   0  0  0  0  0  0  0  0  0  0  0  0
   23.6613    5.3989   24.9564 C   0  0  0  0  0  0  0  0  0  0  0  0
   24.4099    4.8074   25.9763 C   0  0  0  0  0  0  0  0  0  0  0  0
   25.3613    5.5583   26.6683 C   0  0  0  0  0  0  0  0  0  0  0  0
   26.1337    5.1028   27.7050 O   0  0  0  0  0  0  0  0  0  0  0  0
   25.7541    3.8599   28.2818 C   0  0  0  0  0  0  0  0  0  0  0  0
   25.5767    6.8936   26.3018 C   0  0  0  0  0  0  0  0  0  0  0  0
   26.4995    7.5941   26.9778 F   0  0  0  0  0  0  0  0  0  0  0  0
  1  2  1  0
  2  3  1  0
  3  4  1  0
  4  5  1  0
  5  6  2  0
  5  7  2  0
  5  8  1  0
  8  9  2  0
  9 10  1  0
 10 11  2  0
 11 12  1  0
 12 13  1  0
 13 14  1  0
 12 15  2  0
 15 16  1  0
 15  8  1  0
M  END
>  <inspiration_score>  (27) 
0.429

>  <HIPPO Pose ID>  (27) 
75261

>  <ref_pdb>  (27) 
x0487b

>  <ref_mols>  (27) 
x0472a

>  <HIPPO Compound ID>  (27) 
570296

>  <energy_score>  (27) 
-221.320366

>  <tags>  (27) 
CpKRS_FrAncestor_bulkdock_iter1,CpKRS_FrAncestor_bulkdock_iter1_cluster_best5,fragmenstein_placed,CpKRS_FrAncestor_bulkdock_iter1_exported,BulkDock Fragalysis export

>  <inchikey>  (27) 
OASKKFUSLVFSMF-UHFFFAOYSA-N

>  <placement_batch>  (27) 
CpKRS_FrAncestor_bulkdock_iter1_cluster_best5

>  <alias>  (27) 
C570296-P21

>  <name>  (27) 
C570296-P21

>  <smiles>  (27) 
CCCNS(=O)(=O)c1cccc(OC)c1F

>  <subsites>  (27) 


>  <distance_score>  (27) 
0.689859

$$$$
C571215-P18
     RDKit          3D

 15 15  0  0  0  0  0  0  0  0999 V2000
    1.5515    8.2571   40.4982 C   0  0  0  0  0  0  0  0  0  0  0  0
    2.3575    8.6434   41.7314 C   0  0  1  0  0  0  0  0  0  0  0  0
    1.4639    9.3052   42.7028 N   0  0  0  0  0  0  0  0  0  0  0  0
    2.9835    7.3979   42.3913 C   0  0  0  0  0  0  0  0  0  0  0  0
    2.6086    6.9821   43.4874 O   0  0  0  0  0  0  0  0  0  0  0  0
    4.0714    6.6659   41.6883 C   0  0  0  0  0  0  0  0  0  0  0  0
    4.9437    7.3823   40.8538 C   0  0  0  0  0  0  0  0  0  0  0  0
    5.9752    6.7297   40.1817 C   0  0  0  0  0  0  0  0  0  0  0  0
    6.1608    5.3644   40.3533 C   0  0  0  0  0  0  0  0  0  0  0  0
    5.3117    4.6453   41.1900 C   0  0  0  0  0  0  0  0  0  0  0  0
    4.2677    5.2828   41.8633 C   0  0  0  0  0  0  0  0  0  0  0  0
    3.4015    4.4626   42.5350 O   0  0  0  0  0  0  0  0  0  0  0  0
    3.5396    4.4721   43.9581 C   0  0  0  0  0  0  0  0  0  0  0  0
    4.0178    3.2577   44.3390 F   0  0  0  0  0  0  0  0  0  0  0  0
    4.4326    5.3927   44.3839 F   0  0  0  0  0  0  0  0  0  0  0  0
  2  1  1  6
  2  3  1  0
  2  4  1  0
  4  5  2  0
  4  6  1  0
  6  7  2  0
  7  8  1  0
  8  9  2  0
  9 10  1  0
 10 11  2  0
 11 12  1  0
 12 13  1  0
 13 14  1  0
 13 15  1  0
 11  6  1  0
M  END
>  <inspiration_score>  (28) 
0.476

>  <HIPPO Pose ID>  (28) 
77492

>  <ref_pdb>  (28) 
x0487b

>  <ref_mols>  (28) 
x0436a

>  <HIPPO Compound ID>  (28) 
571215

>  <energy_score>  (28) 
-43.816885

>  <tags>  (28) 
CpKRS_FrAncestor_bulkdock_iter1,CpKRS_FrAncestor_bulkdock_iter1_cluster_best5,fragmenstein_placed,CpKRS_FrAncestor_bulkdock_iter1_exported,BulkDock Fragalysis export

>  <inchikey>  (28) 
DZSMNPHXLDNAOD-UHFFFAOYSA-N

>  <placement_batch>  (28) 
CpKRS_FrAncestor_bulkdock_iter1_cluster_best5

>  <alias>  (28) 
C571215-P18

>  <name>  (28) 
C571215-P18

>  <smiles>  (28) 
C[C@@H](N)C(=O)c1ccccc1OC(F)F

>  <subsites>  (28) 


>  <distance_score>  (28) 
0.590036

$$$$
C571704-P39
     RDKit          3D

 14 14  0  0  0  0  0  0  0  0999 V2000
    4.3141  -10.8081   27.1868 C   0  0  0  0  0  0  0  0  0  0  0  0
    5.1161  -11.3613   26.2640 C   0  0  0  0  0  0  0  0  0  0  0  0
    6.4037  -11.9465   26.6780 C   0  0  0  0  0  0  0  0  0  0  0  0
    6.8286  -13.0446   26.3669 O   0  0  0  0  0  0  0  0  0  0  0  0
    7.1393  -11.1073   27.4184 O   0  0  0  0  0  0  0  0  0  0  0  0
    4.6587  -11.5814   24.8869 C   0  0  0  0  0  0  0  0  0  0  0  0
    4.1101  -12.8605   24.6613 C   0  0  0  0  0  0  0  0  0  0  0  0
    3.8014  -13.2724   23.3815 C   0  0  0  0  0  0  0  0  0  0  0  0
    4.0250  -12.3742   22.3687 C   0  0  0  0  0  0  0  0  0  0  0  0
    4.4975  -11.1199   22.5499 N   0  0  0  0  0  0  0  0  0  0  0  0
    4.8456  -10.7040   23.7940 C   0  0  0  0  0  0  0  0  0  0  0  0
    5.4285   -9.4334   23.8628 N   0  0  0  0  0  0  0  0  0  0  0  0
    5.6303   -8.7751   22.5732 C   0  0  0  0  0  0  0  0  0  0  0  0
    5.0944   -8.5479   24.9680 C   0  0  0  0  0  0  0  0  0  0  0  0
  1  2  2  0
  2  3  1  0
  3  4  2  0
  3  5  1  0
  2  6  1  0
  6  7  2  0
  7  8  1  0
  8  9  2  0
  9 10  1  0
 10 11  2  0
 11 12  1  0
 12 13  1  0
 12 14  1  0
 11  6  1  0
M  END
>  <inspiration_score>  (29) 
0.522

>  <HIPPO Pose ID>  (29) 
78613

>  <ref_pdb>  (29) 
x0487b

>  <ref_mols>  (29) 
x0602a

>  <HIPPO Compound ID>  (29) 
571704

>  <energy_score>  (29) 
-55.968589

>  <tags>  (29) 
CpKRS_FrAncestor_bulkdock_iter1,CpKRS_FrAncestor_bulkdock_iter1_cluster_best5,fragmenstein_placed,CpKRS_FrAncestor_bulkdock_iter1_exported,BulkDock Fragalysis export

>  <inchikey>  (29) 
BTLNSFHMTSOELU-UHFFFAOYSA-N

>  <placement_batch>  (29) 
CpKRS_FrAncestor_bulkdock_iter1_cluster_best5

>  <alias>  (29) 
C571704-P39

>  <name>  (29) 
C571704-P39

>  <smiles>  (29) 
C=C(C(=O)O)c1cccnc1N(C)C

>  <subsites>  (29) 


>  <distance_score>  (29) 
0.511104

$$$$
C571790-P19
     RDKit          3D

 16 16  0  0  0  0  0  0  0  0999 V2000
    5.9227    9.3561   37.3892 C   0  0  0  0  0  0  0  0  0  0  0  0
    5.4068    9.0709   38.7918 C   0  0  2  0  0  0  0  0  0  0  0  0
    5.6920   10.2195   39.6667 N   0  0  0  0  0  0  0  0  0  0  0  0
    6.0892    7.8278   39.3648 C   0  0  0  0  0  0  0  0  0  0  0  0
    7.2558    7.5479   39.1034 O   0  0  0  0  0  0  0  0  0  0  0  0
    5.3291    6.9461   40.2829 C   0  0  0  0  0  0  0  0  0  0  0  0
    5.7039    5.6010   40.3964 C   0  0  0  0  0  0  0  0  0  0  0  0
    4.9992    4.7435   41.2472 C   0  0  0  0  0  0  0  0  0  0  0  0
    3.9261    5.2357   41.9869 C   0  0  0  0  0  0  0  0  0  0  0  0
    3.1895    4.4293   42.8060 O   0  0  0  0  0  0  0  0  0  0  0  0
    3.8757    4.2102   44.0355 C   0  0  0  0  0  0  0  0  0  0  0  0
    2.9509    3.8643   44.9642 F   0  0  0  0  0  0  0  0  0  0  0  0
    4.4243    5.3699   44.4786 F   0  0  0  0  0  0  0  0  0  0  0  0
    3.5448    6.5665   41.8752 C   0  0  0  0  0  0  0  0  0  0  0  0
    4.2587    7.4157   41.0422 C   0  0  0  0  0  0  0  0  0  0  0  0
    3.8911    8.7023   41.0247 F   0  0  0  0  0  0  0  0  0  0  0  0
  2  1  1  6
  2  3  1  0
  2  4  1  0
  4  5  2  0
  4  6  1  0
  6  7  2  0
  7  8  1  0
  8  9  2  0
  9 10  1  0
 10 11  1  0
 11 12  1  0
 11 13  1  0
  9 14  1  0
 14 15  2  0
 15 16  1  0
 15  6  1  0
M  END
>  <inspiration_score>  (30) 
0.656

>  <HIPPO Pose ID>  (30) 
78793

>  <ref_pdb>  (30) 
x0487b

>  <ref_mols>  (30) 
x0436b

>  <HIPPO Compound ID>  (30) 
571790

>  <energy_score>  (30) 
-36.263813

>  <tags>  (30) 
CpKRS_FrAncestor_bulkdock_iter1,CpKRS_FrAncestor_bulkdock_iter1_cluster_best5,fragmenstein_placed,CpKRS_FrAncestor_bulkdock_iter1_exported,BulkDock Fragalysis export

>  <inchikey>  (30) 
ZEIPIKBMHRRBDT-UHFFFAOYSA-N

>  <placement_batch>  (30) 
CpKRS_FrAncestor_bulkdock_iter1_cluster_best5

>  <alias>  (30) 
C571790-P19

>  <name>  (30) 
C571790-P19

>  <smiles>  (30) 
C[C@H](N)C(=O)c1ccc(OC(F)F)cc1F

>  <subsites>  (30) 


>  <distance_score>  (30) 
0.477879

$$$$
C572279-P53
     RDKit          3D

 17 17  0  0  0  0  0  0  0  0999 V2000
   26.6284    6.3159   24.4946 C   0  0  0  0  0  0  0  0  0  0  0  0
   25.6841    7.2622   23.9921 O   0  0  0  0  0  0  0  0  0  0  0  0
   25.0977    8.0198   24.9523 C   0  0  0  0  0  0  0  0  0  0  0  0
   25.2735    7.9333   26.1542 O   0  0  0  0  0  0  0  0  0  0  0  0
   24.1250    8.9048   24.2855 C   0  0  0  0  0  0  0  0  0  0  0  0
   24.6010    9.7732   23.2861 C   0  0  0  0  0  0  0  0  0  0  0  0
   26.0106    9.9863   23.1042 N   0  0  0  0  0  0  0  0  0  0  0  0
   26.8767   10.0607   24.2227 O   0  0  0  0  0  0  0  0  0  0  0  0
   26.5487   10.2196   21.8216 O   0  0  0  0  0  0  0  0  0  0  0  0
   23.7217   10.4527   22.4447 C   0  0  0  0  0  0  0  0  0  0  0  0
   22.3554   10.2884   22.6204 C   0  0  0  0  0  0  0  0  0  0  0  0
   21.8658    9.5315   23.6693 C   0  0  0  0  0  0  0  0  0  0  0  0
   22.7441    8.8385   24.5119 C   0  0  0  0  0  0  0  0  0  0  0  0
   21.9086    7.8796   25.7317 S   0  0  0  0  0  0  0  0  0  0  0  0
   22.9821    6.7818   26.3487 N   0  0  0  0  0  0  0  0  0  0  0  0
   21.5251    8.7835   26.7923 O   0  0  0  0  0  0  0  0  0  0  0  0
   20.9300    7.0923   25.0227 O   0  0  0  0  0  0  0  0  0  0  0  0
  1  2  1  0
  2  3  1  0
  3  4  2  0
  3  5  1  0
  5  6  2  0
  6  7  1  0
  7  8  2  0
  7  9  1  0
  6 10  1  0
 10 11  2  0
 11 12  1  0
 12 13  2  0
 13 14  1  0
 14 15  1  0
 14 16  2  0
 14 17  2  0
 13  5  1  0
M  CHG  1   7   1
M  END
>  <inspiration_score>  (31) 
0.522

>  <HIPPO Pose ID>  (31) 
79898

>  <ref_pdb>  (31) 
x0487b

>  <ref_mols>  (31) 
x0639b

>  <HIPPO Compound ID>  (31) 
572279

>  <energy_score>  (31) 
-84.604561

>  <tags>  (31) 
CpKRS_FrAncestor_bulkdock_iter1,CpKRS_FrAncestor_bulkdock_iter1_cluster_best5,fragmenstein_placed,CpKRS_FrAncestor_bulkdock_iter1_exported,BulkDock Fragalysis export

>  <inchikey>  (31) 
NVQDQCYRBXUVBT-UHFFFAOYSA-N

>  <placement_batch>  (31) 
CpKRS_FrAncestor_bulkdock_iter1_cluster_best5

>  <alias>  (31) 
C572279-P53

>  <name>  (31) 
C572279-P53

>  <smiles>  (31) 
COC(=O)c1c([N+](=O)O)cccc1S(N)(=O)=O

>  <subsites>  (31) 


>  <distance_score>  (31) 
0.658022

$$$$
C572496-P53
     RDKit          3D

 16 16  0  0  0  0  0  0  0  0999 V2000
   25.4502    9.6038   22.3753 C   0  0  0  0  0  0  0  0  0  0  0  0
   24.1684    9.6805   23.1668 C   0  0  0  0  0  0  0  0  0  0  0  0
   23.2876   10.7266   22.8695 C   0  0  0  0  0  0  0  0  0  0  0  0
   22.0733   10.8593   23.5316 C   0  0  0  0  0  0  0  0  0  0  0  0
   21.7102    9.9443   24.4934 C   0  0  0  0  0  0  0  0  0  0  0  0
   22.5709    8.8953   24.8219 C   0  0  0  0  0  0  0  0  0  0  0  0
   22.1229    8.0764   25.9219 N   0  0  0  0  0  0  0  0  0  0  0  0
   20.9405    8.4183   26.6389 O   0  0  0  0  0  0  0  0  0  0  0  0
   22.9313    7.0835   26.5001 O   0  0  0  0  0  0  0  0  0  0  0  0
   23.8111    8.7278   24.1514 C   0  0  0  0  0  0  0  0  0  0  0  0
   24.7541    7.5729   24.4256 C   0  0  0  0  0  0  0  0  0  0  0  0
   25.7472    7.8495   25.5383 C   0  0  0  0  0  0  0  0  0  0  0  0
   26.8220    6.4737   25.8458 S   0  0  0  0  0  0  0  0  0  0  0  0
   27.6402    6.8060   26.9966 O   0  0  0  0  0  0  0  0  0  0  0  0
   27.4195    6.0458   24.5976 O   0  0  0  0  0  0  0  0  0  0  0  0
   25.6711    4.9009   26.4722 Cl  0  0  0  0  0  0  0  0  0  0  0  0
  1  2  1  0
  2  3  2  0
  3  4  1  0
  4  5  2  0
  5  6  1  0
  6  7  1  0
  7  8  2  0
  7  9  1  0
  6 10  2  0
 10 11  1  0
 11 12  1  0
 12 13  1  0
 13 14  2  0
 13 15  2  0
 13 16  1  0
 10  2  1  0
M  CHG  1   7   1
M  END
>  <inspiration_score>  (32) 
0.583

>  <HIPPO Pose ID>  (32) 
80405

>  <ref_pdb>  (32) 
x0487b

>  <ref_mols>  (32) 
x0639b

>  <HIPPO Compound ID>  (32) 
572496

>  <energy_score>  (32) 
-61.211369

>  <tags>  (32) 
CpKRS_FrAncestor_bulkdock_iter1,CpKRS_FrAncestor_bulkdock_iter1_cluster_best5,fragmenstein_placed,CpKRS_FrAncestor_bulkdock_iter1_exported,BulkDock Fragalysis export

>  <inchikey>  (32) 
MVWHPGYPHVWIQA-UHFFFAOYSA-N

>  <placement_batch>  (32) 
CpKRS_FrAncestor_bulkdock_iter1_cluster_best5

>  <alias>  (32) 
C572496-P53

>  <name>  (32) 
C572496-P53

>  <smiles>  (32) 
Cc1cccc([N+](=O)O)c1CCS(=O)(=O)Cl

>  <subsites>  (32) 


>  <distance_score>  (32) 
0.736507

$$$$
C572864-P23
     RDKit          3D

 14 14  0  0  0  0  0  0  0  0999 V2000
   27.4592    2.3791   24.1485 C   0  0  0  0  0  0  0  0  0  0  0  0
   26.2822    3.3289   24.0253 C   0  0  0  0  0  0  0  0  0  0  0  0
   25.2971    3.0483   25.0551 N   0  0  0  0  0  0  0  0  0  0  0  0
   25.3469    3.8406   26.5220 S   0  0  0  0  0  0  0  0  0  0  0  0
   26.7100    3.8149   27.0077 O   0  0  0  0  0  0  0  0  0  0  0  0
   24.2566    3.3314   27.3145 O   0  0  0  0  0  0  0  0  0  0  0  0
   24.9671    5.5203   26.0828 C   0  0  0  0  0  0  0  0  0  0  0  0
   25.9742    6.4879   26.1442 C   0  0  0  0  0  0  0  0  0  0  0  0
   25.6780    7.8024   25.7978 C   0  0  0  0  0  0  0  0  0  0  0  0
   24.3824    8.1410   25.4146 C   0  0  0  0  0  0  0  0  0  0  0  0
   24.1329    9.4145   25.0830 F   0  0  0  0  0  0  0  0  0  0  0  0
   23.3581    7.1907   25.3710 C   0  0  0  0  0  0  0  0  0  0  0  0
   21.9551    7.5985   25.0267 C   0  0  0  0  0  0  0  0  0  0  0  0
   23.6628    5.8642   25.7074 C   0  0  0  0  0  0  0  0  0  0  0  0
  1  2  1  0
  2  3  1  0
  3  4  1  0
  4  5  2  0
  4  6  2  0
  4  7  1  0
  7  8  2  0
  8  9  1  0
  9 10  2  0
 10 11  1  0
 10 12  1  0
 12 13  1  0
 12 14  2  0
 14  7  1  0
M  END
>  <inspiration_score>  (33) 
0.359

>  <HIPPO Pose ID>  (33) 
81282

>  <ref_pdb>  (33) 
x0487b

>  <ref_mols>  (33) 
x0472c

>  <HIPPO Compound ID>  (33) 
572864

>  <energy_score>  (33) 
-172.538462

>  <tags>  (33) 
CpKRS_FrAncestor_bulkdock_iter1,CpKRS_FrAncestor_bulkdock_iter1_cluster_best5,fragmenstein_placed,CpKRS_FrAncestor_bulkdock_iter1_exported,BulkDock Fragalysis export

>  <inchikey>  (33) 
KUQHNWCXLAZEMR-UHFFFAOYSA-N

>  <placement_batch>  (33) 
CpKRS_FrAncestor_bulkdock_iter1_cluster_best5

>  <alias>  (33) 
C572864-P23

>  <name>  (33) 
C572864-P23

>  <smiles>  (33) 
CCNS(=O)(=O)c1ccc(F)c(C)c1

>  <subsites>  (33) 


>  <distance_score>  (33) 
0.484711

$$$$
C572956-P27
     RDKit          3D

 15 15  0  0  0  0  0  0  0  0999 V2000
   15.8607   26.7164   26.1987 C   0  0  0  0  0  0  0  0  0  0  0  0
   14.3926   26.3801   26.3787 C   0  0  0  0  0  0  0  0  0  0  0  0
   13.8886   25.4564   25.3743 N   0  0  0  0  0  0  0  0  0  0  0  0
   13.4890   23.8728   25.7843 S   0  0  0  0  0  0  0  0  0  0  0  0
   12.6282   23.8957   26.9392 O   0  0  0  0  0  0  0  0  0  0  0  0
   13.0629   23.2578   24.5455 O   0  0  0  0  0  0  0  0  0  0  0  0
   15.0442   23.1356   26.2408 C   0  0  0  0  0  0  0  0  0  0  0  0
   15.9112   23.7779   27.1302 C   0  0  0  0  0  0  0  0  0  0  0  0
   17.1968   23.3029   27.3660 C   0  0  0  0  0  0  0  0  0  0  0  0
   17.6103   22.1154   26.7702 C   0  0  0  0  0  0  0  0  0  0  0  0
   18.9990   21.5998   27.0372 C   0  0  0  0  0  0  0  0  0  0  0  0
   19.1877   20.3148   26.6308 F   0  0  0  0  0  0  0  0  0  0  0  0
   19.9426   22.3358   26.3886 F   0  0  0  0  0  0  0  0  0  0  0  0
   16.7134   21.4235   25.9375 C   0  0  0  0  0  0  0  0  0  0  0  0
   15.4323   21.9256   25.6729 C   0  0  0  0  0  0  0  0  0  0  0  0
  1  2  1  0
  2  3  1  0
  3  4  1  0
  4  5  2  0
  4  6  2  0
  4  7  1  0
  7  8  2  0
  8  9  1  0
  9 10  2  0
 10 11  1  0
 11 12  1  0
 11 13  1  0
 10 14  1  0
 14 15  2  0
 15  7  1  0
M  END
>  <inspiration_score>  (34) 
0.609

>  <HIPPO Pose ID>  (34) 
81474

>  <ref_pdb>  (34) 
x0487b

>  <ref_mols>  (34) 
x0483a

>  <HIPPO Compound ID>  (34) 
572956

>  <energy_score>  (34) 
-329.408405

>  <tags>  (34) 
CpKRS_FrAncestor_bulkdock_iter1,CpKRS_FrAncestor_bulkdock_iter1_cluster_best5,fragmenstein_placed,CpKRS_FrAncestor_bulkdock_iter1_exported,BulkDock Fragalysis export

>  <inchikey>  (34) 
NQFCPAXFHRNBLF-UHFFFAOYSA-N

>  <placement_batch>  (34) 
CpKRS_FrAncestor_bulkdock_iter1_cluster_best5

>  <alias>  (34) 
C572956-P27

>  <name>  (34) 
C572956-P27

>  <smiles>  (34) 
CCNS(=O)(=O)c1ccc(C(F)F)cc1

>  <subsites>  (34) 


>  <distance_score>  (34) 
0.811306

$$$$
C573172-P19
     RDKit          3D

 10 10  0  0  0  0  0  0  0  0999 V2000
    3.5045    4.2765   42.8544 O   0  0  0  0  0  0  0  0  0  0  0  0
    4.1481    5.1754   42.0595 C   0  0  0  0  0  0  0  0  0  0  0  0
    5.1041    4.7053   41.1706 C   0  0  0  0  0  0  0  0  0  0  0  0
    5.7741    5.5957   40.3274 C   0  0  0  0  0  0  0  0  0  0  0  0
    5.5027    6.9651   40.3656 C   0  0  0  0  0  0  0  0  0  0  0  0
    6.2290    7.7980   39.4880 N   0  0  0  0  0  0  0  0  0  0  0  0
    5.6487    8.7619   39.1592 C   0  0  0  0  0  0  0  0  0  0  0  0
    4.6607   10.2194   38.7964 S   0  0  0  0  0  0  0  0  0  0  0  0
    4.5518    7.4195   41.3021 C   0  0  0  0  0  0  0  0  0  0  0  0
    3.8670    6.5309   42.1342 C   0  0  0  0  0  0  0  0  0  0  0  0
  1  2  1  0
  2  3  2  0
  3  4  1  0
  4  5  2  0
  5  6  1  0
  6  7  2  0
  7  8  2  0
  5  9  1  0
  9 10  2  0
 10  2  1  0
M  END
>  <inspiration_score>  (35) 
0.579

>  <HIPPO Pose ID>  (35) 
81986

>  <ref_pdb>  (35) 
x0487b

>  <ref_mols>  (35) 
x0436b

>  <HIPPO Compound ID>  (35) 
573172

>  <energy_score>  (35) 
-35.343602

>  <tags>  (35) 
CpKRS_FrAncestor_bulkdock_iter1,CpKRS_FrAncestor_bulkdock_iter1_cluster_best5,fragmenstein_placed,CpKRS_FrAncestor_bulkdock_iter1_exported,BulkDock Fragalysis export

>  <inchikey>  (35) 
HIPHYBWWZWRZOV-UHFFFAOYSA-N

>  <placement_batch>  (35) 
CpKRS_FrAncestor_bulkdock_iter1_cluster_best5

>  <alias>  (35) 
C573172-P19

>  <name>  (35) 
C573172-P19

>  <smiles>  (35) 
Oc1ccc(N=C=S)cc1

>  <subsites>  (35) 


>  <distance_score>  (35) 
0.46781

$$$$
C573202-P40
     RDKit          3D

 14 14  0  0  0  0  0  0  0  0999 V2000
    6.1937   -8.3106   24.5963 C   0  0  0  0  0  0  0  0  0  0  0  0
    5.7237   -8.8835   23.3850 O   0  0  0  0  0  0  0  0  0  0  0  0
    5.3275  -10.1885   23.4195 C   0  0  0  0  0  0  0  0  0  0  0  0
    5.3654  -11.0138   24.5341 C   0  0  0  0  0  0  0  0  0  0  0  0
    4.8270  -12.3172   24.4818 C   0  0  0  0  0  0  0  0  0  0  0  0
    4.7541  -13.2109   25.7271 C   0  0  2  0  0  0  0  0  0  0  0  0
    5.8697  -14.2695   25.6355 C   0  0  0  0  0  0  0  0  0  0  0  0
    3.3469  -13.8969   25.9252 C   0  0  0  0  0  0  0  0  0  0  0  0
    3.0637  -15.2013   25.3207 N   0  0  0  0  0  0  0  0  0  0  0  0
    5.1061  -12.4345   26.9016 O   0  0  0  0  0  0  0  0  0  0  0  0
    4.1307  -11.5086   27.3589 C   0  0  0  0  0  0  0  0  0  0  0  0
    4.3832  -12.7641   23.2398 C   0  0  0  0  0  0  0  0  0  0  0  0
    4.4374  -11.8979   22.1658 C   0  0  0  0  0  0  0  0  0  0  0  0
    4.8539  -10.6174   22.2396 N   0  0  0  0  0  0  0  0  0  0  0  0
  1  2  1  0
  2  3  1  0
  3  4  2  0
  4  5  1  0
  5  6  1  0
  6  7  1  6
  6  8  1  0
  8  9  1  0
  6 10  1  0
 10 11  1  0
  5 12  2  0
 12 13  1  0
 13 14  2  0
 14  3  1  0
M  END
>  <inspiration_score>  (36) 
0.601

>  <HIPPO Pose ID>  (36) 
82057

>  <ref_pdb>  (36) 
x0487b

>  <ref_mols>  (36) 
x0602b

>  <HIPPO Compound ID>  (36) 
573202

>  <energy_score>  (36) 
-68.38598

>  <tags>  (36) 
CpKRS_FrAncestor_bulkdock_iter1,CpKRS_FrAncestor_bulkdock_iter1_cluster_best5,fragmenstein_placed,CpKRS_FrAncestor_bulkdock_iter1_exported,BulkDock Fragalysis export

>  <inchikey>  (36) 
XVOZKLCZBHQNPX-UHFFFAOYSA-N

>  <placement_batch>  (36) 
CpKRS_FrAncestor_bulkdock_iter1_cluster_best5

>  <alias>  (36) 
C573202-P40

>  <name>  (36) 
C573202-P40

>  <smiles>  (36) 
COc1cc([C@](C)(CN)OC)ccn1

>  <subsites>  (36) 


>  <distance_score>  (36) 
0.755832

$$$$
C573899-P50
     RDKit          3D

 13 13  0  0  0  0  0  0  0  0999 V2000
    2.1490  -12.5952   23.3913 C   0  0  0  0  0  0  0  0  0  0  0  0
    2.8900  -13.7560   23.7493 O   0  0  0  0  0  0  0  0  0  0  0  0
    2.7025  -14.1482   25.0481 C   0  0  0  0  0  0  0  0  0  0  0  0
    3.6053  -15.0449   25.5811 C   0  0  0  0  0  0  0  0  0  0  0  0
    3.4040  -15.4807   26.8825 C   0  0  0  0  0  0  0  0  0  0  0  0
    2.2891  -15.0326   27.6026 C   0  0  0  0  0  0  0  0  0  0  0  0
    2.0788  -15.6360   28.9448 C   0  0  0  0  0  0  0  0  0  0  0  0
    0.8055  -15.3942   29.7009 C   0  0  0  0  0  0  0  0  0  0  0  0
    2.9375  -16.3867   29.4147 O   0  0  0  0  0  0  0  0  0  0  0  0
    1.4334  -14.1293   26.9685 C   0  0  0  0  0  0  0  0  0  0  0  0
    0.3129  -13.6378   27.6061 O   0  0  0  0  0  0  0  0  0  0  0  0
   -0.5463  -12.8998   26.7305 C   0  0  0  0  0  0  0  0  0  0  0  0
    1.6283  -13.6929   25.7076 N   0  0  0  0  0  0  0  0  0  0  0  0
  1  2  1  0
  2  3  1  0
  3  4  2  0
  4  5  1  0
  5  6  2  0
  6  7  1  0
  7  8  1  0
  7  9  2  0
  6 10  1  0
 10 11  1  0
 11 12  1  0
 10 13  2  0
 13  3  1  0
M  END
>  <inspiration_score>  (37) 
0.717

>  <HIPPO Pose ID>  (37) 
83682

>  <ref_pdb>  (37) 
x0639c

>  <ref_mols>  (37) 
x0634a

>  <HIPPO Compound ID>  (37) 
573899

>  <energy_score>  (37) 
-81.350846

>  <tags>  (37) 
CpKRS_FrAncestor_bulkdock_iter1,CpKRS_FrAncestor_bulkdock_iter1_cluster_best5,fragmenstein_placed,CpKRS_FrAncestor_bulkdock_iter1_exported,BulkDock Fragalysis export

>  <inchikey>  (37) 
IVALWZXGBXJZPI-UHFFFAOYSA-N

>  <placement_batch>  (37) 
CpKRS_FrAncestor_bulkdock_iter1_cluster_best5

>  <alias>  (37) 
C573899-P50

>  <name>  (37) 
C573899-P50

>  <smiles>  (37) 
COc1ccc(C(C)=O)c(OC)n1

>  <subsites>  (37) 


>  <distance_score>  (37) 
0.597732

$$$$
C575366-P18
     RDKit          3D

 17 17  0  0  0  0  0  0  0  0999 V2000
    0.7094    9.9139   41.2633 C   0  0  0  0  0  0  0  0  0  0  0  0
    2.0133    9.8900   42.0401 C   0  0  0  0  0  0  0  0  0  0  0  0
    2.6603    8.6163   41.9231 O   0  0  0  0  0  0  0  0  0  0  0  0
    3.4104    8.4423   40.8064 C   0  0  0  0  0  0  0  0  0  0  0  0
    3.4569    9.2186   39.8635 O   0  0  0  0  0  0  0  0  0  0  0  0
    4.1622    7.1521   40.8829 C   0  0  0  0  0  0  0  0  0  0  0  0
    3.8327    6.1868   41.8621 C   0  0  0  0  0  0  0  0  0  0  0  0
    4.5271    4.9779   41.9244 C   0  0  0  0  0  0  0  0  0  0  0  0
    4.3278    3.9763   42.8280 O   0  0  0  0  0  0  0  0  0  0  0  0
    3.7108    4.3092   44.0549 C   0  0  0  0  0  0  0  0  0  0  0  0
    3.9155    3.2994   44.9292 F   0  0  0  0  0  0  0  0  0  0  0  0
    2.3838    4.4644   43.8905 F   0  0  0  0  0  0  0  0  0  0  0  0
    4.2272    5.4344   44.5916 F   0  0  0  0  0  0  0  0  0  0  0  0
    5.5291    4.7209   40.9916 C   0  0  0  0  0  0  0  0  0  0  0  0
    5.8698    5.6758   40.0345 C   0  0  0  0  0  0  0  0  0  0  0  0
    5.1754    6.8859   39.9397 C   0  0  0  0  0  0  0  0  0  0  0  0
    5.6630    7.8520   39.0459 N   0  0  0  0  0  0  0  0  0  0  0  0
  1  2  1  0
  2  3  1  0
  3  4  1  0
  4  5  2  0
  4  6  1  0
  6  7  2  0
  7  8  1  0
  8  9  1  0
  9 10  1  0
 10 11  1  0
 10 12  1  0
 10 13  1  0
  8 14  2  0
 14 15  1  0
 15 16  2  0
 16 17  1  0
 16  6  1  0
M  END
>  <inspiration_score>  (38) 
0.718

>  <HIPPO Pose ID>  (38) 
87123

>  <ref_pdb>  (38) 
x0639c

>  <ref_mols>  (38) 
x0436a

>  <HIPPO Compound ID>  (38) 
575366

>  <energy_score>  (38) 
-41.400568

>  <tags>  (38) 
CpKRS_FrAncestor_bulkdock_iter1,CpKRS_FrAncestor_bulkdock_iter1_cluster_best5,fragmenstein_placed,CpKRS_FrAncestor_bulkdock_iter1_exported,BulkDock Fragalysis export

>  <inchikey>  (38) 
LRMYMTKSGQSULI-UHFFFAOYSA-N

>  <placement_batch>  (38) 
CpKRS_FrAncestor_bulkdock_iter1_cluster_best5

>  <alias>  (38) 
C575366-P18

>  <name>  (38) 
C575366-P18

>  <smiles>  (38) 
CCOC(=O)c1cc(OC(F)(F)F)ccc1N

>  <subsites>  (38) 


>  <distance_score>  (38) 
0.361677

$$$$
C576693-P48
     RDKit          3D

 18 18  0  0  0  0  0  0  0  0999 V2000
    4.9126  -10.6476   22.8283 C   0  0  0  0  0  0  0  0  0  0  0  0
    4.5453  -12.0971   22.5729 C   0  0  0  0  0  0  0  0  0  0  0  0
    3.6006  -12.5284   23.5580 O   0  0  0  0  0  0  0  0  0  0  0  0
    4.0767  -13.1986   24.6501 C   0  0  0  0  0  0  0  0  0  0  0  0
    5.2654  -13.4007   24.8671 O   0  0  0  0  0  0  0  0  0  0  0  0
    2.9809  -13.6489   25.4794 C   0  0  0  0  0  0  0  0  0  0  0  0
    1.4377  -12.9322   25.3645 S   0  0  0  0  0  0  0  0  0  0  0  0
    0.7965  -14.0497   26.4994 C   0  0  0  0  0  0  0  0  0  0  0  0
   -0.5301  -14.0969   26.7967 N   0  0  0  0  0  0  0  0  0  0  0  0
   -1.4934  -13.9934   25.7026 C   0  0  0  0  0  0  0  0  0  0  0  0
   -2.9306  -13.9247   26.1991 C   0  0  0  0  0  0  0  0  0  0  0  0
   -3.4781  -15.2792   26.6203 C   0  0  0  0  0  0  0  0  0  0  0  0
   -4.7857  -15.1020   27.1674 O   0  0  0  0  0  0  0  0  0  0  0  0
   -5.3072  -16.3354   27.6489 C   0  0  0  0  0  0  0  0  0  0  0  0
    1.6950  -14.8438   27.0359 N   0  0  0  0  0  0  0  0  0  0  0  0
    2.9513  -14.6452   26.4443 C   0  0  0  0  0  0  0  0  0  0  0  0
    4.0865  -15.5185   26.8625 C   0  0  0  0  0  0  0  0  0  0  0  0
    4.4382  -16.6965   25.5724 Cl  0  0  0  0  0  0  0  0  0  0  0  0
  1  2  1  0
  2  3  1  0
  3  4  1  0
  4  5  2  0
  4  6  1  0
  6  7  1  0
  7  8  1  0
  8  9  1  0
  9 10  1  0
 10 11  1  0
 11 12  1  0
 12 13  1  0
 13 14  1  0
  8 15  2  0
 15 16  1  0
 16 17  1  0
 17 18  1  0
 16  6  2  0
M  END
>  <inspiration_score>  (39) 
0.538

>  <HIPPO Pose ID>  (39) 
90527

>  <ref_pdb>  (39) 
x0639c

>  <ref_mols>  (39) 
x0504a

>  <HIPPO Compound ID>  (39) 
576693

>  <energy_score>  (39) 
-107.346523

>  <tags>  (39) 
CpKRS_FrAncestor_bulkdock_iter1,CpKRS_FrAncestor_bulkdock_iter1_cluster_best5,fragmenstein_placed,CpKRS_FrAncestor_bulkdock_iter1_exported,BulkDock Fragalysis export

>  <inchikey>  (39) 
JDUDZTRJYORJDE-UHFFFAOYSA-N

>  <placement_batch>  (39) 
CpKRS_FrAncestor_bulkdock_iter1_cluster_best5

>  <alias>  (39) 
C576693-P48

>  <name>  (39) 
C576693-P48

>  <smiles>  (39) 
CCOC(=O)c1sc(NCCCOC)nc1CCl

>  <subsites>  (39) 


>  <distance_score>  (39) 
0.856529

$$$$
C577190-P27
     RDKit          3D

 18 18  0  0  0  0  0  0  0  0999 V2000
   22.2528   25.0863   30.3968 C   0  0  0  0  0  0  0  0  0  0  0  0
   22.0255   23.6257   30.7337 C   0  0  0  0  0  0  0  0  0  0  0  0
   21.9427   22.8931   29.5075 O   0  0  0  0  0  0  0  0  0  0  0  0
   21.5945   21.5923   29.6537 C   0  0  0  0  0  0  0  0  0  0  0  0
   21.5438   20.9935   30.7285 O   0  0  0  0  0  0  0  0  0  0  0  0
   21.3723   20.8974   28.3314 C   0  0  0  0  0  0  0  0  0  0  0  0
   21.1284   21.7629   27.1043 C   0  0  0  0  0  0  0  0  0  0  0  0
   19.6738   21.9272   26.8178 N   0  0  0  0  0  0  0  0  0  0  0  0
   19.0621   23.4455   27.2684 S   0  0  0  0  0  0  0  0  0  0  0  0
   19.2241   23.5880   28.6942 O   0  0  0  0  0  0  0  0  0  0  0  0
   19.6483   24.3796   26.3272 O   0  0  0  0  0  0  0  0  0  0  0  0
   17.3316   23.3972   26.9150 C   0  0  0  0  0  0  0  0  0  0  0  0
   16.6486   24.6173   26.9173 C   0  0  0  0  0  0  0  0  0  0  0  0
   15.3032   24.6662   26.5487 C   0  0  0  0  0  0  0  0  0  0  0  0
   14.6191   23.4999   26.2022 C   0  0  0  0  0  0  0  0  0  0  0  0
   13.3079   23.5766   25.7170 N   0  0  0  0  0  0  0  0  0  0  0  0
   15.3315   22.2951   26.1430 C   0  0  0  0  0  0  0  0  0  0  0  0
   16.6773   22.2283   26.5322 C   0  0  0  0  0  0  0  0  0  0  0  0
  1  2  1  0
  2  3  1  0
  3  4  1  0
  4  5  2  0
  4  6  1  0
  6  7  1  0
  7  8  1  0
  8  9  1  0
  9 10  2  0
  9 11  2  0
  9 12  1  0
 12 13  2  0
 13 14  1  0
 14 15  2  0
 15 16  1  0
 15 17  1  0
 17 18  2  0
 18 12  1  0
M  END
>  <inspiration_score>  (40) 
0.407

>  <HIPPO Pose ID>  (40) 
91638

>  <ref_pdb>  (40) 
x0639c

>  <ref_mols>  (40) 
x0483a

>  <HIPPO Compound ID>  (40) 
577190

>  <energy_score>  (40) 
-199.796307

>  <tags>  (40) 
CpKRS_FrAncestor_bulkdock_iter1,CpKRS_FrAncestor_bulkdock_iter1_cluster_best5,fragmenstein_placed,CpKRS_FrAncestor_bulkdock_iter1_exported,BulkDock Fragalysis export

>  <inchikey>  (40) 
AGZSFFNTFLZMGB-UHFFFAOYSA-N

>  <placement_batch>  (40) 
CpKRS_FrAncestor_bulkdock_iter1_cluster_best5

>  <alias>  (40) 
C577190-P27

>  <name>  (40) 
C577190-P27

>  <smiles>  (40) 
CCOC(=O)CCNS(=O)(=O)c1ccc(N)cc1

>  <subsites>  (40) 


>  <distance_score>  (40) 
0.893202

$$$$
C577580-P53
     RDKit          3D

 14 14  0  0  0  0  0  0  0  0999 V2000
   22.5053    7.1781   26.2555 O   0  0  0  0  0  0  0  0  0  0  0  0
   22.1881    8.4187   25.6713 N   0  0  0  0  0  0  0  0  0  0  0  0
   21.1233    9.1548   26.2382 O   0  0  0  0  0  0  0  0  0  0  0  0
   22.8915    8.9162   24.5207 C   0  0  0  0  0  0  0  0  0  0  0  0
   22.1291    9.5290   23.5266 C   0  0  0  0  0  0  0  0  0  0  0  0
   22.7649    9.9815   22.3760 C   0  0  0  0  0  0  0  0  0  0  0  0
   24.1553    9.8809   22.2293 C   0  0  0  0  0  0  0  0  0  0  0  0
   24.8391   10.3970   20.7292 Cl  0  0  0  0  0  0  0  0  0  0  0  0
   24.9381    9.3212   23.2473 C   0  0  0  0  0  0  0  0  0  0  0  0
   26.7603    9.2255   23.1454 S   0  0  0  0  0  0  0  0  0  0  0  0
   27.1438    8.5883   21.6722 O   0  0  0  0  0  0  0  0  0  0  0  0
   26.9361   10.8108   22.9827 O   0  0  0  0  0  0  0  0  0  0  0  0
   24.2888    8.7953   24.3829 C   0  0  0  0  0  0  0  0  0  0  0  0
   25.2459    7.9784   25.5800 Cl  0  0  0  0  0  0  0  0  0  0  0  0
  1  2  2  0
  2  3  1  0
  2  4  1  0
  4  5  2  0
  5  6  1  0
  6  7  2  0
  7  8  1  0
  7  9  1  0
  9 10  1  0
 10 11  1  6
 10 12  1  0
  9 13  2  0
 13 14  1  0
 13  4  1  0
M  CHG  3   2   1  10   1  11  -1
M  END
>  <inspiration_score>  (41) 
0.562

>  <HIPPO Pose ID>  (41) 
92454

>  <ref_pdb>  (41) 
x0634a

>  <ref_mols>  (41) 
x0639b

>  <HIPPO Compound ID>  (41) 
450701

>  <energy_score>  (41) 
-61.769528

>  <tags>  (41) 
CpKRS_FrAncestor_bulkdock_iter1,CpKRS_FrAncestor_bulkdock_iter1_cluster_best5,fragmenstein_placed,CpKRS_FrAncestor_bulkdock_iter1_exported,BulkDock Fragalysis export

>  <inchikey>  (41) 
NFOHIBCWZCPLRB-UHFFFAOYSA-N

>  <placement_batch>  (41) 
CpKRS_FrAncestor_bulkdock_iter1_cluster_best5

>  <alias>  (41) 
C577580-P53

>  <name>  (41) 
C577580-P53

>  <smiles>  (41) 
O=[N+](O)c1ccc(Cl)c([S@@+]([O-])O)c1Cl

>  <subsites>  (41) 


>  <distance_score>  (41) 
0.953478

$$$$
C577626-P23
     RDKit          3D

 15 15  0  0  0  0  0  0  0  0999 V2000
   28.4964    6.4501   29.7181 C   0  0  0  0  0  0  0  0  0  0  0  0
   28.6675    6.8997   28.2782 C   0  0  0  0  0  0  0  0  0  0  0  0
   27.6407    7.9036   27.9634 N   0  0  0  0  0  0  0  0  0  0  0  0
   27.3334    8.2461   26.3437 S   0  0  0  0  0  0  0  0  0  0  0  0
   28.3814    7.6839   25.5255 O   0  0  0  0  0  0  0  0  0  0  0  0
   27.0064    9.6567   26.3160 O   0  0  0  0  0  0  0  0  0  0  0  0
   25.8387    7.3474   26.0306 C   0  0  0  0  0  0  0  0  0  0  0  0
   25.8193    5.9640   26.1887 C   0  0  0  0  0  0  0  0  0  0  0  0
   24.6444    5.2735   25.9231 C   0  0  0  0  0  0  0  0  0  0  0  0
   24.6235    3.9463   26.0868 F   0  0  0  0  0  0  0  0  0  0  0  0
   23.4955    5.9316   25.4967 C   0  0  0  0  0  0  0  0  0  0  0  0
   23.5099    7.3190   25.3586 C   0  0  0  0  0  0  0  0  0  0  0  0
   22.3333    8.0380   24.9706 C   0  0  0  0  0  0  0  0  0  0  0  0
   21.4263    8.6986   24.6819 N   0  0  0  0  0  0  0  0  0  0  0  0
   24.6901    8.0281   25.6128 C   0  0  0  0  0  0  0  0  0  0  0  0
  1  2  1  0
  2  3  1  0
  3  4  1  0
  4  5  2  0
  4  6  2  0
  4  7  1  0
  7  8  2  0
  8  9  1  0
  9 10  1  0
  9 11  2  0
 11 12  1  0
 12 13  1  0
 13 14  3  0
 12 15  2  0
 15  7  1  0
M  END
>  <inspiration_score>  (42) 
0.473

>  <HIPPO Pose ID>  (42) 
92568

>  <ref_pdb>  (42) 
x0634a

>  <ref_mols>  (42) 
x0472c

>  <HIPPO Compound ID>  (42) 
578278

>  <energy_score>  (42) 
-193.511476

>  <tags>  (42) 
CpKRS_FrAncestor_bulkdock_iter1,CpKRS_FrAncestor_bulkdock_iter1_cluster_best5,fragmenstein_placed,CpKRS_FrAncestor_bulkdock_iter1_exported,BulkDock Fragalysis export

>  <inchikey>  (42) 
ZDKZVVGJBWUJAD-UHFFFAOYSA-N

>  <placement_batch>  (42) 
CpKRS_FrAncestor_bulkdock_iter1_cluster_best5

>  <alias>  (42) 
C577626-P23

>  <name>  (42) 
C577626-P23

>  <smiles>  (42) 
CCNS(=O)(=O)c1cc(F)cc(C#N)c1

>  <subsites>  (42) 


>  <distance_score>  (42) 
0.447013

$$$$
C577857-P47
     RDKit          3D

 12 12  0  0  0  0  0  0  0  0999 V2000
    6.2924    3.6832   41.3888 C   0  0  0  0  0  0  0  0  0  0  0  0
    6.3522    2.6483   42.4939 C   0  0  0  0  0  0  0  0  0  0  0  0
    5.5887    3.0843   43.6256 O   0  0  0  0  0  0  0  0  0  0  0  0
    4.2675    2.7736   43.6900 C   0  0  0  0  0  0  0  0  0  0  0  0
    3.6862    2.0360   42.9068 O   0  0  0  0  0  0  0  0  0  0  0  0
    3.6032    3.4624   44.7903 C   0  0  0  0  0  0  0  0  0  0  0  0
    3.4976    2.8564   46.0490 N   0  0  0  0  0  0  0  0  0  0  0  0
    2.8302    3.6489   46.8550 C   0  0  0  0  0  0  0  0  0  0  0  0
    2.3331    5.1457   46.2146 S   0  0  0  0  0  0  0  0  0  0  0  0
    3.0508    4.7385   44.7043 C   0  0  0  0  0  0  0  0  0  0  0  0
    2.9929    5.6653   43.7076 N   0  0  0  0  0  0  0  0  0  0  0  0
    2.8960    5.2640   42.3241 C   0  0  0  0  0  0  0  0  0  0  0  0
  1  2  1  0
  2  3  1  0
  3  4  1  0
  4  5  2  0
  4  6  1  0
  6  7  1  0
  7  8  2  0
  8  9  1  0
  9 10  1  0
 10 11  1  0
 11 12  1  0
 10  6  2  0
M  END
>  <inspiration_score>  (43) 
0.494

>  <HIPPO Pose ID>  (43) 
93074

>  <ref_pdb>  (43) 
x0634a

>  <ref_mols>  (43) 
x0504c

>  <HIPPO Compound ID>  (43) 
578123

>  <energy_score>  (43) 
-96.871135

>  <tags>  (43) 
CpKRS_FrAncestor_bulkdock_iter1,CpKRS_FrAncestor_bulkdock_iter1_cluster_best5,fragmenstein_placed,CpKRS_FrAncestor_bulkdock_iter1_exported,BulkDock Fragalysis export

>  <inchikey>  (43) 
FQYHWUZKRLFOPJ-UHFFFAOYSA-N

>  <placement_batch>  (43) 
CpKRS_FrAncestor_bulkdock_iter1_cluster_best5

>  <alias>  (43) 
C577857-P47

>  <name>  (43) 
C577857-P47

>  <smiles>  (43) 
CCOC(=O)c1ncsc1NC

>  <subsites>  (43) 


>  <distance_score>  (43) 
0.548183

$$$$
C579383-P21
     RDKit          3D

 15 15  0  0  0  0  0  0  0  0999 V2000
   22.5389   10.9393   24.1212 C   0  0  0  0  0  0  0  0  0  0  0  0
   21.4187    9.9596   24.3696 C   0  0  0  0  0  0  0  0  0  0  0  0
   21.9308    8.7145   24.9890 N   0  0  0  0  0  0  0  0  0  0  0  0
   22.5003    7.5515   23.8831 S   0  0  0  0  0  0  0  0  0  0  0  0
   21.3631    6.6866   23.6728 O   0  0  0  0  0  0  0  0  0  0  0  0
   23.2147    8.2057   22.8132 O   0  0  0  0  0  0  0  0  0  0  0  0
   23.6977    6.6999   24.8738 C   0  0  0  0  0  0  0  0  0  0  0  0
   23.6029    5.3191   25.0217 C   0  0  0  0  0  0  0  0  0  0  0  0
   24.4902    4.6444   25.8582 C   0  0  0  0  0  0  0  0  0  0  0  0
   25.4859    5.3557   26.5282 C   0  0  0  0  0  0  0  0  0  0  0  0
   26.6421    4.3992   27.6910 Br  0  0  0  0  0  0  0  0  0  0  0  0
   25.6197    6.7384   26.3332 C   0  0  0  0  0  0  0  0  0  0  0  0
   26.6054    7.4014   27.0199 O   0  0  0  0  0  0  0  0  0  0  0  0
   27.3542    8.2992   26.2021 C   0  0  0  0  0  0  0  0  0  0  0  0
   24.7055    7.4188   25.5208 C   0  0  0  0  0  0  0  0  0  0  0  0
  1  2  1  0
  2  3  1  0
  3  4  1  0
  4  5  2  0
  4  6  2  0
  4  7  1  0
  7  8  2  0
  8  9  1  0
  9 10  2  0
 10 11  1  0
 10 12  1  0
 12 13  1  0
 13 14  1  0
 12 15  2  0
 15  7  1  0
M  END
>  <inspiration_score>  (44) 
0.462

>  <HIPPO Pose ID>  (44) 
96282

>  <ref_pdb>  (44) 
x0634a

>  <ref_mols>  (44) 
x0472a

>  <HIPPO Compound ID>  (44) 
578183

>  <energy_score>  (44) 
-278.381402

>  <tags>  (44) 
CpKRS_FrAncestor_bulkdock_iter1,CpKRS_FrAncestor_bulkdock_iter1_cluster_best5,fragmenstein_placed,CpKRS_FrAncestor_bulkdock_iter1_exported,BulkDock Fragalysis export

>  <inchikey>  (44) 
TVEGTMRTFFAPRZ-UHFFFAOYSA-N

>  <placement_batch>  (44) 
CpKRS_FrAncestor_bulkdock_iter1_cluster_best5

>  <alias>  (44) 
C579383-P21

>  <name>  (44) 
C579383-P21

>  <smiles>  (44) 
CCNS(=O)(=O)c1ccc(Br)c(OC)c1

>  <subsites>  (44) 


>  <distance_score>  (44) 
0.442913

$$$$
C579851-P52
     RDKit          3D

 10 10  0  0  0  0  0  0  0  0999 V2000
   21.2506    7.1094   24.4671 C   0  0  0  0  0  0  0  0  0  0  0  0
   21.7442    8.3398   25.7123 S   0  0  0  0  0  3  0  0  0  0  0  0
   22.6957    7.3241   26.5139 O   0  0  0  0  0  0  0  0  0  0  0  0
   23.0637    9.1107   24.7209 C   0  0  0  0  0  0  0  0  0  0  0  0
   24.3938    8.6695   24.7858 C   0  0  0  0  0  0  0  0  0  0  0  0
   25.3974    9.2934   24.0398 C   0  0  0  0  0  0  0  0  0  0  0  0
   25.0835   10.3564   23.2023 C   0  0  0  0  0  0  0  0  0  0  0  0
   23.7657   10.7939   23.1095 C   0  0  0  0  0  0  0  0  0  0  0  0
   22.7615   10.1857   23.8701 C   0  0  0  0  0  0  0  0  0  0  0  0
   20.9991   10.8764   23.7032 Br  0  0  0  0  0  0  0  0  0  0  0  0
  1  2  1  0
  2  3  1  0
  2  4  1  0
  4  5  2  0
  5  6  1  0
  6  7  2  0
  7  8  1  0
  8  9  2  0
  9 10  1  0
  9  4  1  0
M  CHG  1   2  -3
M  END
>  <inspiration_score>  (45) 
0.711

>  <HIPPO Pose ID>  (45) 
97273

>  <ref_pdb>  (45) 
x0634a

>  <ref_mols>  (45) 
x0639a

>  <HIPPO Compound ID>  (45) 
577819

>  <energy_score>  (45) 
-116.187944

>  <tags>  (45) 
CpKRS_FrAncestor_bulkdock_iter1,CpKRS_FrAncestor_bulkdock_iter1_cluster_best5,fragmenstein_placed,CpKRS_FrAncestor_bulkdock_iter1_exported,BulkDock Fragalysis export

>  <inchikey>  (45) 
GGQDEQMHQOVISH-UHFFFAOYSA-N

>  <placement_batch>  (45) 
CpKRS_FrAncestor_bulkdock_iter1_cluster_best5

>  <alias>  (45) 
C579851-P52

>  <name>  (45) 
C579851-P52

>  <smiles>  (45) 
C[S-3](O)c1ccccc1Br

>  <subsites>  (45) 


>  <distance_score>  (45) 
0.502691

$$$$
C580294-P39
     RDKit          3D

 12 12  0  0  0  0  0  0  0  0999 V2000
    5.5854   -8.5796   22.4876 C   0  0  0  0  0  0  0  0  0  0  0  0
    5.2216   -9.1768   23.7622 N   0  0  0  0  0  0  0  0  0  0  0  0
    4.8736  -10.5418   23.6909 C   0  0  0  0  0  0  0  0  0  0  0  0
    4.5557  -11.0494   22.4841 N   0  0  0  0  0  0  0  0  0  0  0  0
    4.1709  -12.3440   22.4265 C   0  0  0  0  0  0  0  0  0  0  0  0
    4.0375  -13.1730   23.5267 C   0  0  0  0  0  0  0  0  0  0  0  0
    3.4983  -14.7914   23.2618 Cl  0  0  0  0  0  0  0  0  0  0  0  0
    4.3402  -12.6641   24.7970 C   0  0  0  0  0  0  0  0  0  0  0  0
    4.2104  -13.5426   26.0155 C   0  0  0  0  0  0  0  0  0  0  0  0
    5.2425  -14.5710   26.0548 N   0  0  0  0  0  0  0  0  0  0  0  0
    4.7719  -11.3217   24.8682 C   0  0  0  0  0  0  0  0  0  0  0  0
    5.2314  -10.6054   26.3846 Cl  0  0  0  0  0  0  0  0  0  0  0  0
  1  2  1  0
  2  3  1  0
  3  4  2  0
  4  5  1  0
  5  6  2  0
  6  7  1  0
  6  8  1  0
  8  9  1  0
  9 10  1  0
  8 11  2  0
 11 12  1  0
 11  3  1  0
M  END
>  <inspiration_score>  (46) 
0.661

>  <HIPPO Pose ID>  (46) 
98194

>  <ref_pdb>  (46) 
x0634a

>  <ref_mols>  (46) 
x0602a

>  <HIPPO Compound ID>  (46) 
579420

>  <energy_score>  (46) 
-104.631192

>  <tags>  (46) 
CpKRS_FrAncestor_bulkdock_iter1,CpKRS_FrAncestor_bulkdock_iter1_cluster_best5,fragmenstein_placed,CpKRS_FrAncestor_bulkdock_iter1_exported,BulkDock Fragalysis export

>  <inchikey>  (46) 
RWBLJKNIFXILNY-UHFFFAOYSA-N

>  <placement_batch>  (46) 
CpKRS_FrAncestor_bulkdock_iter1_cluster_best5

>  <alias>  (46) 
C580294-P39

>  <name>  (46) 
C580294-P39

>  <smiles>  (46) 
CNc1ncc(Cl)c(CN)c1Cl

>  <subsites>  (46) 


>  <distance_score>  (46) 
0.583373

$$$$
C580707-P50
     RDKit          3D

 12 12  0  0  0  0  0  0  0  0999 V2000
    3.9374  -17.5849   24.7921 C   0  0  0  0  0  0  0  0  0  0  0  0
    4.2610  -16.1524   24.7368 N   0  0  0  0  0  0  0  0  0  0  0  0
    3.4462  -15.3829   25.6032 C   0  0  0  0  0  0  0  0  0  0  0  0
    3.3812  -15.6921   26.9556 C   0  0  0  0  0  0  0  0  0  0  0  0
    2.4734  -15.0312   27.7674 C   0  0  0  0  0  0  0  0  0  0  0  0
    2.3259  -15.4365   29.1615 C   0  0  0  0  0  0  0  0  0  0  0  0
    2.9281  -16.4164   29.5847 O   0  0  0  0  0  0  0  0  0  0  0  0
    1.6931  -14.0257   27.2281 C   0  0  0  0  0  0  0  0  0  0  0  0
    1.7759  -13.6289   25.9413 N   0  0  0  0  0  0  0  0  0  0  0  0
    2.6662  -14.2964   25.1655 C   0  0  0  0  0  0  0  0  0  0  0  0
    2.7913  -13.9406   23.8373 O   0  0  0  0  0  0  0  0  0  0  0  0
    2.1167  -12.7321   23.5053 C   0  0  0  0  0  0  0  0  0  0  0  0
  1  2  1  0
  2  3  1  0
  3  4  2  0
  4  5  1  0
  5  6  1  0
  6  7  2  0
  5  8  2  0
  8  9  1  0
  9 10  2  0
 10 11  1  0
 11 12  1  0
 10  3  1  0
M  END
>  <inspiration_score>  (47) 
0.651

>  <HIPPO Pose ID>  (47) 
98920

>  <ref_pdb>  (47) 
x0634a

>  <ref_mols>  (47) 
x0634a

>  <HIPPO Compound ID>  (47) 
580707

>  <energy_score>  (47) 
-114.958873

>  <tags>  (47) 
CpKRS_FrAncestor_bulkdock_iter1,CpKRS_FrAncestor_bulkdock_iter1_cluster_best5,fragmenstein_placed,CpKRS_FrAncestor_bulkdock_iter1_exported,BulkDock Fragalysis export

>  <inchikey>  (47) 
DQIICSDJMZFHAO-UHFFFAOYSA-N

>  <placement_batch>  (47) 
CpKRS_FrAncestor_bulkdock_iter1_cluster_best5

>  <alias>  (47) 
C580707-P50

>  <name>  (47) 
C580707-P50

>  <smiles>  (47) 
CNc1cc(C=O)cnc1OC

>  <subsites>  (47) 


>  <distance_score>  (47) 
0.747869

$$$$
C580867-P32
     RDKit          3D

 22 22  0  0  0  0  0  0  0  0999 V2000
    6.9365  -20.1630   20.6470 C   0  0  0  0  0  0  0  0  0  0  0  0
    6.3436  -21.3992   21.2225 C   0  0  0  0  0  0  0  0  0  0  0  0
    5.7845  -22.2445   20.1584 N   0  0  0  0  0  0  0  0  0  0  0  0
    4.5022  -23.1485   20.7737 S   0  0  0  0  0  0  0  0  0  0  0  0
    5.1053  -24.1713   21.5986 O   0  0  0  0  0  0  0  0  0  0  0  0
    3.5218  -22.2230   21.2890 O   0  0  0  0  0  0  0  0  0  0  0  0
    3.8108  -23.9910   19.3996 C   0  0  0  0  0  0  0  0  0  0  0  0
    4.0310  -23.5650   18.0957 C   0  0  0  0  0  0  0  0  0  0  0  0
    3.4062  -24.2497   17.0575 C   0  0  0  0  0  0  0  0  0  0  0  0
    2.5792  -25.3563   17.3078 C   0  0  0  0  0  0  0  0  0  0  0  0
    1.8624  -26.0245   16.1652 C   0  0  0  0  0  0  0  0  0  0  0  0
    0.9116  -25.1371   15.5621 N   0  0  0  0  0  0  0  0  0  0  0  0
    0.9170  -24.4476   14.1680 C   0  0  0  0  0  0  0  0  0  0  0  0
    1.7346  -24.4374   13.3306 O   0  0  0  0  0  0  0  0  0  0  0  0
   -0.4426  -23.7037   13.9839 C   0  0  0  0  0  0  0  0  0  0  0  0
   -0.7485  -22.7547   15.1545 C   0  0  0  0  0  0  0  0  0  0  0  0
   -0.3663  -22.8805   12.6791 C   0  0  0  0  0  0  0  0  0  0  0  0
   -1.5756  -24.7007   13.8167 C   0  0  0  0  0  0  0  0  0  0  0  0
   -1.4990  -25.9188   13.8180 O   0  0  0  0  0  0  0  0  0  0  0  0
   -2.7871  -24.1216   13.6606 O   0  0  0  0  0  0  0  0  0  0  0  0
    2.4075  -25.7951   18.6258 C   0  0  0  0  0  0  0  0  0  0  0  0
    3.0255  -25.1166   19.6718 C   0  0  0  0  0  0  0  0  0  0  0  0
  1  2  1  0
  2  3  1  0
  3  4  1  0
  4  5  2  0
  4  6  2  0
  4  7  1  0
  7  8  2  0
  8  9  1  0
  9 10  2  0
 10 11  1  0
 11 12  1  0
 12 13  1  0
 13 14  2  0
 13 15  1  0
 15 16  1  0
 15 17  1  0
 15 18  1  0
 18 19  2  0
 18 20  1  0
 10 21  1  0
 21 22  2  0
 22  7  1  0
M  END
>  <inspiration_score>  (48) 
0.64

>  <HIPPO Pose ID>  (48) 
99245

>  <ref_pdb>  (48) 
x0634a

>  <ref_mols>  (48) 
x0487a

>  <HIPPO Compound ID>  (48) 
580086

>  <energy_score>  (48) 
-255.602063

>  <tags>  (48) 
CpKRS_FrAncestor_bulkdock_iter1,CpKRS_FrAncestor_bulkdock_iter1_cluster_best5,fragmenstein_placed,CpKRS_FrAncestor_bulkdock_iter1_exported,BulkDock Fragalysis export

>  <inchikey>  (48) 
QZAMVPYARJVBHU-UHFFFAOYSA-N

>  <placement_batch>  (48) 
CpKRS_FrAncestor_bulkdock_iter1_cluster_best5

>  <alias>  (48) 
C580867-P32

>  <name>  (48) 
C580867-P32

>  <smiles>  (48) 
CCNS(=O)(=O)c1ccc(CNC(=O)C(C)(C)C(=O)O)cc1

>  <subsites>  (48) 


>  <distance_score>  (48) 
0.941347

$$$$
C581111-P54
     RDKit          3D

 18 18  0  0  0  0  0  0  0  0999 V2000
    7.6373  -38.1238    5.2981 C   0  0  0  0  0  0  0  0  0  0  0  0
    7.2798  -38.0471    6.4424 C   0  0  0  0  0  0  0  0  0  0  0  0
    6.8461  -37.9485    7.8408 C   0  0  0  0  0  0  0  0  0  0  0  0
    7.1551  -36.6169    8.3378 N   0  0  0  0  0  0  0  0  0  0  0  0
    6.5466  -36.1488    9.8140 S   0  0  0  0  0  0  0  0  0  0  0  0
    5.1148  -36.3581    9.7884 O   0  0  0  0  0  0  0  0  0  0  0  0
    7.0890  -34.8498   10.1463 O   0  0  0  0  0  0  0  0  0  0  0  0
    7.2379  -37.3277   10.9494 C   0  0  0  0  0  0  0  0  0  0  0  0
    6.3560  -38.2260   11.5733 C   0  0  0  0  0  0  0  0  0  0  0  0
    6.8357  -39.1713   12.4817 C   0  0  0  0  0  0  0  0  0  0  0  0
    6.0538  -40.1080   13.1067 O   0  0  0  0  0  0  0  0  0  0  0  0
    4.6443  -39.9901   12.9817 C   0  0  0  0  0  0  0  0  0  0  0  0
    8.2095  -39.2076   12.7794 C   0  0  0  0  0  0  0  0  0  0  0  0
    8.6274  -40.2030   13.6259 O   0  0  0  0  0  0  0  0  0  0  0  0
    9.8527  -39.9808   14.3143 C   0  0  0  0  0  0  0  0  0  0  0  0
    9.0795  -38.2975   12.1700 C   0  0  0  0  0  0  0  0  0  0  0  0
    8.6002  -37.3548   11.2542 C   0  0  0  0  0  0  0  0  0  0  0  0
    9.9027  -36.2236   10.4625 Br  0  0  0  0  0  0  0  0  0  0  0  0
  1  2  3  0
  2  3  1  0
  3  4  1  0
  4  5  1  0
  5  6  2  0
  5  7  2  0
  5  8  1  0
  8  9  2  0
  9 10  1  0
 10 11  1  0
 11 12  1  0
 10 13  2  0
 13 14  1  0
 14 15  1  0
 13 16  1  0
 16 17  2  0
 17 18  1  0
 17  8  1  0
M  END
>  <inspiration_score>  (49) 
0.927

>  <HIPPO Pose ID>  (49) 
99725

>  <ref_pdb>  (49) 
x0634a

>  <ref_mols>  (49) 
x0639c

>  <HIPPO Compound ID>  (49) 
581101

>  <energy_score>  (49) 
-230.343046

>  <tags>  (49) 
CpKRS_FrAncestor_bulkdock_iter1,CpKRS_FrAncestor_bulkdock_iter1_cluster_best5,fragmenstein_placed,CpKRS_FrAncestor_bulkdock_iter1_exported,BulkDock Fragalysis export

>  <inchikey>  (49) 
JLISXHCFYPZGKU-UHFFFAOYSA-N

>  <placement_batch>  (49) 
CpKRS_FrAncestor_bulkdock_iter1_cluster_best5

>  <alias>  (49) 
C581111-P54

>  <name>  (49) 
C581111-P54

>  <smiles>  (49) 
C#CCNS(=O)(=O)c1cc(OC)c(OC)cc1Br

>  <subsites>  (49) 


>  <distance_score>  (49) 
0.307505

$$$$
C581416-P15
     RDKit          3D

 24 25  0  0  0  0  0  0  0  0999 V2000
    4.8347  -23.1381   17.6264 C   0  0  0  0  0  0  0  0  0  0  0  0
    3.9915  -24.1108   16.8227 C   0  0  0  0  0  0  0  0  0  0  0  0
    3.3390  -25.1295   17.6700 C   0  0  0  0  0  0  0  0  0  0  0  0
    3.8982  -25.4171   18.8550 N   0  0  0  0  0  0  0  0  0  0  0  0
    3.0165  -26.2235   19.4418 N   0  0  0  0  0  0  0  0  0  0  0  0
    3.1816  -26.5686   20.8297 C   0  0  0  0  0  0  0  0  0  0  0  0
    2.0047  -26.5933   18.6149 C   0  0  0  0  0  0  0  0  0  0  0  0
    2.1568  -25.8822   17.4328 C   0  0  0  0  0  0  0  0  0  0  0  0
    1.2062  -25.9890   16.2937 C   0  0  0  0  0  0  0  0  0  0  0  0
    1.4246  -25.1459   15.1485 N   0  0  0  0  0  0  0  0  0  0  0  0
    1.3985  -25.4765   13.6405 C   0  0  0  0  0  0  0  0  0  0  0  0
    1.2724  -26.4989   13.0927 O   0  0  0  0  0  0  0  0  0  0  0  0
    1.4471  -24.2615   12.7708 C   0  0  0  0  0  0  0  0  0  0  0  0
    0.5983  -23.1826   13.0298 C   0  0  0  0  0  0  0  0  0  0  0  0
    0.5006  -22.1434   12.1037 C   0  0  0  0  0  0  0  0  0  0  0  0
    1.2658  -22.2001   10.9517 C   0  0  0  0  0  0  0  0  0  0  0  0
    2.1035  -23.2206   10.6585 N   0  0  0  0  0  0  0  0  0  0  0  0
    2.1392  -24.2437   11.5551 C   0  0  0  0  0  0  0  0  0  0  0  0
    2.9477  -25.2860   11.1833 O   0  0  0  0  0  0  0  0  0  0  0  0
    2.2155  -26.1855   10.3301 C   0  0  0  0  0  0  0  0  0  0  0  0
    2.8486  -26.3133    8.9583 C   0  0  0  0  0  0  0  0  0  0  0  0
    2.6796  -25.2076    8.2092 F   0  0  0  0  0  0  0  0  0  0  0  0
    4.1746  -26.5703    9.0400 F   0  0  0  0  0  0  0  0  0  0  0  0
    2.2893  -27.3460    8.2799 F   0  0  0  0  0  0  0  0  0  0  0  0
  1  2  1  0
  2  3  1  0
  3  4  2  0
  4  5  1  0
  5  6  1  0
  5  7  1  0
  7  8  2  0
  8  9  1  0
  9 10  1  0
 10 11  1  0
 11 12  2  0
 11 13  1  0
 13 14  2  0
 14 15  1  0
 15 16  2  0
 16 17  1  0
 17 18  2  0
 18 19  1  0
 19 20  1  0
 20 21  1  0
 21 22  1  0
 21 23  1  0
 21 24  1  0
  8  3  1  0
 18 13  1  0
M  END
>  <inspiration_score>  (50) 
0.631

>  <HIPPO Pose ID>  (50) 
100309

>  <ref_pdb>  (50) 
x0634a

>  <ref_mols>  (50) 
x0426b

>  <HIPPO Compound ID>  (50) 
451603

>  <energy_score>  (50) 
-300.907736

>  <tags>  (50) 
CpKRS_FrAncestor_bulkdock_iter1,CpKRS_FrAncestor_bulkdock_iter1_cluster_best5,fragmenstein_placed,CpKRS_FrAncestor_bulkdock_iter1_exported,BulkDock Fragalysis export

>  <inchikey>  (50) 
OVSCJFRDIYRVAD-UHFFFAOYSA-N

>  <placement_batch>  (50) 
CpKRS_FrAncestor_bulkdock_iter1_cluster_best5

>  <alias>  (50) 
C581416-P15

>  <name>  (50) 
C581416-P15

>  <smiles>  (50) 
CCc1nn(C)cc1CNC(=O)c1cccnc1OCC(F)(F)F

>  <subsites>  (50) 


>  <distance_score>  (50) 
0.97604

$$$$
C581459-P27
     RDKit          3D

 18 18  0  0  0  0  0  0  0  0999 V2000
   21.5469   22.4701   30.8268 C   0  0  0  0  0  0  0  0  0  0  0  0
   21.4355   21.8627   29.5360 N   0  0  0  0  0  0  0  0  0  0  0  0
   22.4298   21.8343   28.3489 C   0  0  0  0  0  0  0  0  0  0  0  0
   23.5229   22.2354   28.2682 O   0  0  0  0  0  0  0  0  0  0  0  0
   21.7305   21.1875   27.1610 C   0  0  0  0  0  0  0  0  0  0  0  0
   21.1970   22.2659   26.2239 C   0  0  0  0  0  0  0  0  0  0  0  0
   19.7161   22.2062   26.0185 N   0  0  0  0  0  0  0  0  0  0  0  0
   18.8187   22.6365   27.3841 S   0  0  0  0  0  0  0  0  0  0  0  0
   19.3811   23.8814   27.8616 O   0  0  0  0  0  0  0  0  0  0  0  0
   18.8073   21.4637   28.2267 O   0  0  0  0  0  0  0  0  0  0  0  0
   17.1804   22.9619   26.8165 C   0  0  0  0  0  0  0  0  0  0  0  0
   16.6235   24.2211   27.1020 C   0  0  0  0  0  0  0  0  0  0  0  0
   15.3072   24.5128   26.7366 C   0  0  0  0  0  0  0  0  0  0  0  0
   14.5386   23.5383   26.1189 C   0  0  0  0  0  0  0  0  0  0  0  0
   13.2764   23.8106   25.7661 F   0  0  0  0  0  0  0  0  0  0  0  0
   15.0755   22.2915   25.8237 C   0  0  0  0  0  0  0  0  0  0  0  0
   16.4131   22.0090   26.1405 C   0  0  0  0  0  0  0  0  0  0  0  0
   17.0690   20.5848   25.4198 Cl  0  0  0  0  0  0  0  0  0  0  0  0
  1  2  1  0
  2  3  1  0
  3  4  2  0
  3  5  1  0
  5  6  1  0
  6  7  1  0
  7  8  1  0
  8  9  2  0
  8 10  2  0
  8 11  1  0
 11 12  2  0
 12 13  1  0
 13 14  2  0
 14 15  1  0
 14 16  1  0
 16 17  2  0
 17 18  1  0
 17 11  1  0
M  END
>  <inspiration_score>  (51) 
0.405

>  <HIPPO Pose ID>  (51) 
100389

>  <ref_pdb>  (51) 
x0634a

>  <ref_mols>  (51) 
x0483a

>  <HIPPO Compound ID>  (51) 
581459

>  <energy_score>  (51) 
-215.303369

>  <tags>  (51) 
CpKRS_FrAncestor_bulkdock_iter1,CpKRS_FrAncestor_bulkdock_iter1_cluster_best5,fragmenstein_placed,CpKRS_FrAncestor_bulkdock_iter1_exported,BulkDock Fragalysis export

>  <inchikey>  (51) 
JHERORMYRHBDCG-UHFFFAOYSA-N

>  <placement_batch>  (51) 
CpKRS_FrAncestor_bulkdock_iter1_cluster_best5

>  <alias>  (51) 
C581459-P27

>  <name>  (51) 
C581459-P27

>  <smiles>  (51) 
CNC(=O)CCNS(=O)(=O)c1ccc(F)cc1Cl

>  <subsites>  (51) 


>  <distance_score>  (51) 
0.918011

$$$$
C581670-P31
     RDKit          3D

 21 21  0  0  0  0  0  0  0  0999 V2000
    6.2284    6.4890   38.9556 C   0  0  0  0  0  0  0  0  0  0  0  0
    6.0278    7.4312   37.8730 N   0  0  0  0  0  0  0  0  0  0  0  0
    6.5908    9.0098   37.9043 S   0  0  0  0  0  0  0  0  0  0  0  0
    6.4032    9.4899   36.5548 O   0  0  0  0  0  0  0  0  0  0  0  0
    7.8585    9.0342   38.5851 O   0  0  0  0  0  0  0  0  0  0  0  0
    5.3787    9.7921   38.9138 C   0  0  0  0  0  0  0  0  0  0  0  0
    4.5158   10.7396   38.3752 C   0  0  0  0  0  0  0  0  0  0  0  0
    3.3905   11.1511   39.0899 C   0  0  0  0  0  0  0  0  0  0  0  0
    2.9910   10.4716   40.2432 C   0  0  0  0  0  0  0  0  0  0  0  0
    1.8104   10.7890   40.9180 N   0  0  0  0  0  0  0  0  0  0  0  0
    0.6190   11.2381   40.1564 C   0  0  1  0  0  0  0  0  0  0  0  0
   -0.2733   10.0284   39.8654 C   0  0  0  0  0  0  0  0  0  0  0  0
   -0.1772   12.3438   40.8817 C   0  0  0  0  0  0  0  0  0  0  0  0
    0.6612   13.4959   41.3839 C   0  0  0  0  0  0  0  0  0  0  0  0
   -1.1091   12.8427   40.0232 F   0  0  0  0  0  0  0  0  0  0  0  0
   -0.8609   11.8087   41.9329 F   0  0  0  0  0  0  0  0  0  0  0  0
    3.8899    9.5001   40.7185 C   0  0  0  0  0  0  0  0  0  0  0  0
    3.4110    8.3629   41.4214 N   0  0  0  0  0  0  0  0  0  0  0  0
    4.1842    7.7842   42.4693 O   0  0  0  0  0  0  0  0  0  0  0  0
    2.4778    7.5374   40.7406 O   0  0  0  0  0  0  0  0  0  0  0  0
    5.1411    9.2672   40.1612 C   0  0  0  0  0  0  0  0  0  0  0  0
  1  2  1  0
  2  3  1  0
  3  4  2  0
  3  5  2  0
  3  6  1  0
  6  7  2  0
  7  8  1  0
  8  9  2  0
  9 10  1  0
 10 11  1  0
 11 12  1  1
 11 13  1  0
 13 14  1  0
 13 15  1  0
 13 16  1  0
  9 17  1  0
 17 18  1  0
 18 19  2  0
 18 20  1  0
 17 21  2  0
 21  6  1  0
M  CHG  1  18   1
M  END
>  <inspiration_score>  (52) 
0.57

>  <HIPPO Pose ID>  (52) 
100824

>  <ref_pdb>  (52) 
x0634a

>  <ref_mols>  (52) 
x0487b

>  <HIPPO Compound ID>  (52) 
581697

>  <energy_score>  (52) 
-77.714171

>  <tags>  (52) 
CpKRS_FrAncestor_bulkdock_iter1,CpKRS_FrAncestor_bulkdock_iter1_cluster_best5,fragmenstein_placed,CpKRS_FrAncestor_bulkdock_iter1_exported,BulkDock Fragalysis export

>  <inchikey>  (52) 
NABGJCIGBNEWEN-UHFFFAOYSA-N

>  <placement_batch>  (52) 
CpKRS_FrAncestor_bulkdock_iter1_cluster_best5

>  <alias>  (52) 
C581670-P31

>  <name>  (52) 
C581670-P31

>  <smiles>  (52) 
CNS(=O)(=O)c1ccc(N[C@@H](C)C(C)(F)F)c([N+](=O)O)c1

>  <subsites>  (52) 


>  <distance_score>  (52) 
0.565879

$$$$
C584808-P49
     RDKit          3D

 17 17  0  0  0  0  0  0  0  0999 V2000
    5.2421  -16.5617   26.0572 C   0  0  0  0  0  0  0  0  0  0  0  0
    4.3400  -15.8033   26.2741 C   0  0  0  0  0  0  0  0  0  0  0  0
    3.2525  -14.9106   26.4753 C   0  0  0  0  0  0  0  0  0  0  0  0
    2.0656  -15.1802   27.6824 S   0  0  0  0  0  0  0  0  0  0  0  0
    1.2721  -13.7535   27.1933 C   0  0  0  0  0  0  0  0  0  0  0  0
    1.7956  -13.1050   26.1818 N   0  0  0  0  0  0  0  0  0  0  0  0
    2.9771  -13.7490   25.7639 C   0  0  0  0  0  0  0  0  0  0  0  0
    3.8022  -13.2323   24.6312 C   0  0  0  0  0  0  0  0  0  0  0  0
    4.6305  -13.9123   24.1475 O   0  0  0  0  0  0  0  0  0  0  0  0
    3.3382  -11.8428   24.2596 N   0  0  0  0  0  0  0  0  0  0  0  0
    2.2118  -11.8934   23.2660 C   0  0  0  0  0  0  0  0  0  0  0  0
    3.8833  -10.8378   23.1894 C   0  0  2  0  0  0  0  0  0  0  0  0
    4.7273  -11.5213   22.0832 C   0  0  0  0  0  0  0  0  0  0  0  0
    4.8853   -9.8873   23.9484 C   0  0  0  0  0  0  0  0  0  0  0  0
    5.4823   -8.7843   23.0897 C   0  0  0  0  0  0  0  0  0  0  0  0
    5.9045  -10.5987   24.4936 F   0  0  0  0  0  0  0  0  0  0  0  0
    4.2410   -9.2867   24.9855 F   0  0  0  0  0  0  0  0  0  0  0  0
  1  2  3  0
  2  3  1  0
  3  4  1  0
  4  5  1  0
  5  6  2  0
  6  7  1  0
  7  8  1  0
  8  9  2  0
  8 10  1  0
 10 11  1  0
 10 12  1  0
 12 13  1  6
 12 14  1  0
 14 15  1  0
 14 16  1  0
 14 17  1  0
  7  3  2  0
M  END
>  <inspiration_score>  (53) 
0.555

>  <HIPPO Pose ID>  (53) 
107067

>  <ref_pdb>  (53) 
x0483a

>  <ref_mols>  (53) 
x0504b

>  <HIPPO Compound ID>  (53) 
584808

>  <energy_score>  (53) 
-199.665499

>  <tags>  (53) 
CpKRS_FrAncestor_bulkdock_iter1,CpKRS_FrAncestor_bulkdock_iter1_cluster_best5,fragmenstein_placed,CpKRS_FrAncestor_bulkdock_iter1_exported,BulkDock Fragalysis export

>  <inchikey>  (53) 
LZBFHPYBZXFETR-UHFFFAOYSA-N

>  <placement_batch>  (53) 
CpKRS_FrAncestor_bulkdock_iter1_cluster_best5

>  <alias>  (53) 
C584808-P49

>  <name>  (53) 
C584808-P49

>  <smiles>  (53) 
C#Cc1scnc1C(=O)N(C)[C@H](C)C(C)(F)F

>  <subsites>  (53) 


>  <distance_score>  (53) 
0.502645

$$$$
C587114-P22
     RDKit          3D

 17 17  0  0  0  0  0  0  0  0999 V2000
   21.3589    6.6626   23.7139 O   0  0  0  0  0  0  0  0  0  0  0  0
   22.4480    7.6010   23.8675 S   0  0  0  0  0  0  0  0  0  0  0  0
   23.2010    8.1077   22.7405 O   0  0  0  0  0  0  0  0  0  0  0  0
   21.7217    8.9161   24.6768 N   0  0  0  0  0  0  0  0  0  0  0  0
   22.0590   10.2059   24.0741 C   0  0  0  0  0  0  0  0  0  0  0  0
   21.2220   11.3097   24.5674 C   0  0  0  0  0  0  0  0  0  0  0  0
   20.6427   12.3508   24.7409 C   0  0  0  0  0  0  0  0  0  0  0  0
   20.0578   13.6880   24.7722 C   0  0  0  0  0  0  0  0  0  0  0  0
   19.6437   14.0835   23.5433 F   0  0  0  0  0  0  0  0  0  0  0  0
   19.0417   13.7892   25.6531 F   0  0  0  0  0  0  0  0  0  0  0  0
   20.9940   14.5920   25.1372 F   0  0  0  0  0  0  0  0  0  0  0  0
   23.6106    6.9202   25.0195 C   0  0  0  0  0  0  0  0  0  0  0  0
   23.5529    5.5559   25.3153 C   0  0  0  0  0  0  0  0  0  0  0  0
   24.5029    4.9784   26.1573 C   0  0  0  0  0  0  0  0  0  0  0  0
   25.5237    5.7621   26.6901 C   0  0  0  0  0  0  0  0  0  0  0  0
   25.5984    7.1193   26.3722 C   0  0  0  0  0  0  0  0  0  0  0  0
   24.6388    7.7061   25.5397 C   0  0  0  0  0  0  0  0  0  0  0  0
  1  2  2  0
  2  3  2  0
  2  4  1  0
  4  5  1  0
  5  6  1  0
  6  7  3  0
  7  8  1  0
  8  9  1  0
  8 10  1  0
  8 11  1  0
  2 12  1  0
 12 13  2  0
 13 14  1  0
 14 15  2  0
 15 16  1  0
 16 17  2  0
 17 12  1  0
M  END
>  <inspiration_score>  (54) 
0.44

>  <HIPPO Pose ID>  (54) 
112310

>  <ref_pdb>  (54) 
x0634b

>  <ref_mols>  (54) 
x0472b

>  <HIPPO Compound ID>  (54) 
586195

>  <energy_score>  (54) 
-346.568077

>  <tags>  (54) 
CpKRS_FrAncestor_bulkdock_iter1,CpKRS_FrAncestor_bulkdock_iter1_cluster_best5,fragmenstein_placed,CpKRS_FrAncestor_bulkdock_iter1_exported,BulkDock Fragalysis export

>  <inchikey>  (54) 
AQOCKXKMIJELCB-UHFFFAOYSA-N

>  <placement_batch>  (54) 
CpKRS_FrAncestor_bulkdock_iter1_cluster_best5

>  <alias>  (54) 
C587114-P22

>  <name>  (54) 
C587114-P22

>  <smiles>  (54) 
O=S(=O)(NCC#CC(F)(F)F)c1ccccc1

>  <subsites>  (54) 


>  <distance_score>  (54) 
0.680459

$$$$
C591077-P6
     RDKit          3D

 17 17  0  0  0  0  0  0  0  0999 V2000
    6.9950   -8.4847   23.8452 C   0  0  0  0  0  0  0  0  0  0  0  0
    5.5494   -8.1005   23.8172 C   0  0  0  0  0  0  0  0  0  0  0  0
    5.3900   -7.0269   24.8976 C   0  0  0  0  0  0  0  0  0  0  0  0
    5.2344   -7.6419   22.3780 C   0  0  0  0  0  0  0  0  0  0  0  0
    4.6849   -9.3304   24.1100 C   0  0  2  0  0  0  0  0  0  0  0  0
    3.2984   -8.9286   24.0264 O   0  0  0  0  0  0  0  0  0  0  0  0
    4.9561   -9.9755   25.4858 C   0  0  0  0  0  0  0  0  0  0  0  0
    3.9189  -10.9808   25.6983 N   0  0  0  0  0  0  0  0  0  0  0  0
    3.6595  -11.1870   27.1285 C   0  0  0  0  0  0  0  0  0  0  0  0
    2.4877  -12.1506   27.2639 C   0  0  0  0  0  0  0  0  0  0  0  0
    2.8250  -13.4203   26.6924 O   0  0  0  0  0  0  0  0  0  0  0  0
    3.0936  -13.2902   25.2820 C   0  0  2  0  0  0  0  0  0  0  0  0
    3.3482  -14.7031   24.6662 C   0  0  0  0  0  0  0  0  0  0  0  0
    4.6431  -15.3395   25.1999 C   0  0  0  0  0  0  0  0  0  0  0  0
    2.1708  -15.6358   25.0250 C   0  0  0  0  0  0  0  0  0  0  0  0
    3.4387  -14.6153   23.1308 C   0  0  0  0  0  0  0  0  0  0  0  0
    4.2482  -12.2794   25.0703 C   0  0  0  0  0  0  0  0  0  0  0  0
  1  2  1  0
  2  3  1  0
  2  4  1  0
  2  5  1  0
  5  6  1  1
  5  7  1  0
  7  8  1  0
  8  9  1  0
  9 10  1  0
 10 11  1  0
 11 12  1  0
 12 13  1  1
 13 14  1  0
 13 15  1  0
 13 16  1  0
 12 17  1  0
 17  8  1  0
M  END
>  <inspiration_score>  (55) 
0.65

>  <HIPPO Pose ID>  (55) 
120365

>  <ref_pdb>  (55) 
x0555a

>  <ref_mols>  (55) 
x0414a

>  <HIPPO Compound ID>  (55) 
591077

>  <energy_score>  (55) 
-73.914142

>  <tags>  (55) 
CpKRS_FrAncestor_bulkdock_iter1,CpKRS_FrAncestor_bulkdock_iter1_cluster_best5,fragmenstein_placed,CpKRS_FrAncestor_bulkdock_iter1_exported,BulkDock Fragalysis export

>  <inchikey>  (55) 
KSCYRZFMOAMWAS-UHFFFAOYSA-N

>  <placement_batch>  (55) 
CpKRS_FrAncestor_bulkdock_iter1_cluster_best5

>  <alias>  (55) 
C591077-P6

>  <name>  (55) 
C591077-P6

>  <smiles>  (55) 
CC(C)(C)[C@H](O)CN1CCO[C@H](C(C)(C)C)C1

>  <subsites>  (55) 


>  <distance_score>  (55) 
0.888584

$$$$
C591235-P39
     RDKit          3D

 17 17  0  0  0  0  0  0  0  0999 V2000
    5.2339  -15.2830   25.6544 C   0  0  0  0  0  0  0  0  0  0  0  0
    3.9902  -14.5886   25.4315 N   0  0  0  0  0  0  0  0  0  0  0  0
    4.0280  -13.1665   25.7586 C   0  0  0  0  0  0  0  0  0  0  0  0
    4.4200  -12.2877   24.5845 C   0  0  0  0  0  0  0  0  0  0  0  0
    4.5895  -12.7831   23.2877 C   0  0  0  0  0  0  0  0  0  0  0  0
    4.8907  -11.9087   22.2631 C   0  0  0  0  0  0  0  0  0  0  0  0
    5.0592  -10.5850   22.4408 N   0  0  0  0  0  0  0  0  0  0  0  0
    4.9311  -10.1145   23.6874 C   0  0  0  0  0  0  0  0  0  0  0  0
    5.1026   -8.7411   23.8256 N   0  0  0  0  0  0  0  0  0  0  0  0
    4.5964  -10.9127   24.7748 C   0  0  0  0  0  0  0  0  0  0  0  0
    2.7041  -15.2850   25.1640 C   0  0  0  0  0  0  0  0  0  0  0  0
    1.9598  -15.5367   26.4808 C   0  0  0  0  0  0  0  0  0  0  0  0
    1.7367  -14.3077   24.4318 C   0  0  0  0  0  0  0  0  0  0  0  0
    2.7842  -16.6648   24.3385 C   0  0  0  0  0  0  0  0  0  0  0  0
    1.3910  -17.3735   24.2611 C   0  0  0  0  0  0  0  0  0  0  0  0
    3.7297  -17.7223   24.9579 C   0  0  0  0  0  0  0  0  0  0  0  0
    3.1881  -16.3936   22.8725 C   0  0  0  0  0  0  0  0  0  0  0  0
  1  2  1  0
  2  3  1  0
  3  4  1  0
  4  5  2  0
  5  6  1  0
  6  7  2  0
  7  8  1  0
  8  9  1  0
  8 10  2  0
  2 11  1  0
 11 12  1  0
 11 13  1  0
 11 14  1  0
 14 15  1  0
 14 16  1  0
 14 17  1  0
 10  4  1  0
M  END
>  <inspiration_score>  (56) 
0.592

>  <HIPPO Pose ID>  (56) 
120695

>  <ref_pdb>  (56) 
x0555a

>  <ref_mols>  (56) 
x0602a

>  <HIPPO Compound ID>  (56) 
591235

>  <energy_score>  (56) 
-59.609275

>  <tags>  (56) 
CpKRS_FrAncestor_bulkdock_iter1,CpKRS_FrAncestor_bulkdock_iter1_cluster_best5,fragmenstein_placed,CpKRS_FrAncestor_bulkdock_iter1_exported,BulkDock Fragalysis export

>  <inchikey>  (56) 
WYWYPOCSCDRLSH-UHFFFAOYSA-N

>  <placement_batch>  (56) 
CpKRS_FrAncestor_bulkdock_iter1_cluster_best5

>  <alias>  (56) 
C591235-P39

>  <name>  (56) 
C591235-P39

>  <smiles>  (56) 
CN(Cc1ccnc(N)c1)C(C)(C)C(C)(C)C

>  <subsites>  (56) 


>  <distance_score>  (56) 
0.989116

$$$$
C591301-P7
     RDKit          3D

 17 17  0  0  0  0  0  0  0  0999 V2000
    1.8426  -12.7950   25.0809 C   0  0  0  0  0  0  0  0  0  0  0  0
    3.1884  -13.2700   25.6738 C   0  0  0  0  0  0  0  0  0  0  0  0
    3.2425  -14.8008   25.4788 C   0  0  0  0  0  0  0  0  0  0  0  0
    3.1913  -13.1002   27.1074 O   0  0  0  0  0  0  0  0  0  0  0  0
    3.1259  -11.7352   27.5045 C   0  0  0  0  0  0  0  0  0  0  0  0
    4.2411  -10.8792   26.8960 C   0  0  0  0  0  0  0  0  0  0  0  0
    4.3623  -11.0316   25.4219 N   0  0  0  0  0  0  0  0  0  0  0  0
    5.4588  -10.1712   24.9006 C   0  0  0  0  0  0  0  0  0  0  0  0
    4.9807   -8.7120   24.7134 C   0  0  2  0  0  0  0  0  0  0  0  0
    3.6816   -8.7297   24.0524 O   0  0  0  0  0  0  0  0  0  0  0  0
    6.0288   -7.9242   23.9214 C   0  0  0  0  0  0  0  0  0  0  0  0
    5.6911   -6.6200   23.8190 F   0  0  0  0  0  0  0  0  0  0  0  0
    7.2410   -7.9773   24.5113 F   0  0  0  0  0  0  0  0  0  0  0  0
    6.1653   -8.4046   22.6645 F   0  0  0  0  0  0  0  0  0  0  0  0
    4.4495  -12.5029   25.0667 C   0  0  0  0  0  0  0  0  0  0  0  0
    5.7327  -13.1532   25.6430 C   0  0  0  0  0  0  0  0  0  0  0  0
    4.4398  -12.6567   23.5236 C   0  0  0  0  0  0  0  0  0  0  0  0
  1  2  1  0
  2  3  1  0
  2  4  1  0
  4  5  1  0
  5  6  1  0
  6  7  1  0
  7  8  1  0
  8  9  1  0
  9 10  1  6
  9 11  1  0
 11 12  1  0
 11 13  1  0
 11 14  1  0
  7 15  1  0
 15 16  1  0
 15 17  1  0
 15  2  1  0
M  END
>  <inspiration_score>  (57) 
0.676

>  <HIPPO Pose ID>  (57) 
120848

>  <ref_pdb>  (57) 
x0555a

>  <ref_mols>  (57) 
x0414b

>  <HIPPO Compound ID>  (57) 
591301

>  <energy_score>  (57) 
-95.109354

>  <tags>  (57) 
CpKRS_FrAncestor_bulkdock_iter1,CpKRS_FrAncestor_bulkdock_iter1_cluster_best5,fragmenstein_placed,CpKRS_FrAncestor_bulkdock_iter1_exported,BulkDock Fragalysis export

>  <inchikey>  (57) 
TZFKXSIYEHAHPR-UHFFFAOYSA-N

>  <placement_batch>  (57) 
CpKRS_FrAncestor_bulkdock_iter1_cluster_best5

>  <alias>  (57) 
C591301-P7

>  <name>  (57) 
C591301-P7

>  <smiles>  (57) 
CC1(C)OCCN(C[C@H](O)C(F)(F)F)C1(C)C

>  <subsites>  (57) 


>  <distance_score>  (57) 
0.504036

$$$$
C594391-P18
     RDKit          3D

 17 17  0  0  0  0  0  0  0  0999 V2000
    1.9376    7.9492   40.0142 C   0  0  0  0  0  0  0  0  0  0  0  0
    3.0954    8.1349   40.6727 C   0  0  0  0  0  0  0  0  0  0  0  0
    4.0060    6.9774   40.8155 C   0  0  0  0  0  0  0  0  0  0  0  0
    3.7182    6.0155   41.8027 C   0  0  0  0  0  0  0  0  0  0  0  0
    4.5402    4.8996   41.9584 C   0  0  0  0  0  0  0  0  0  0  0  0
    4.3682    3.9061   42.8767 O   0  0  0  0  0  0  0  0  0  0  0  0
    3.7276    4.2598   44.0860 C   0  0  0  0  0  0  0  0  0  0  0  0
    4.2076    5.4151   44.5931 F   0  0  0  0  0  0  0  0  0  0  0  0
    2.3975    4.3735   43.9065 F   0  0  0  0  0  0  0  0  0  0  0  0
    3.9500    3.2830   44.9928 F   0  0  0  0  0  0  0  0  0  0  0  0
    5.6380    4.7363   41.1151 C   0  0  0  0  0  0  0  0  0  0  0  0
    5.9502    5.7059   40.1611 C   0  0  0  0  0  0  0  0  0  0  0  0
    5.1194    6.8115   39.9675 C   0  0  0  0  0  0  0  0  0  0  0  0
    5.5172    7.8207   39.0667 N   0  0  0  0  0  0  0  0  0  0  0  0
    3.5643    9.4221   41.3170 C   0  0  2  0  0  0  0  0  0  0  0  0
    2.4446   10.3661   41.7417 C   0  0  0  0  0  0  0  0  0  0  0  0
    4.4068   10.1273   40.4067 O   0  0  0  0  0  0  0  0  0  0  0  0
  1  2  2  0
  2  3  1  0
  3  4  2  0
  4  5  1  0
  5  6  1  0
  6  7  1  0
  7  8  1  0
  7  9  1  0
  7 10  1  0
  5 11  2  0
 11 12  1  0
 12 13  2  0
 13 14  1  0
  2 15  1  0
 15 16  1  6
 15 17  1  0
 13  3  1  0
M  END
>  <inspiration_score>  (58) 
0.708

>  <HIPPO Pose ID>  (58) 
127461

>  <ref_pdb>  (58) 
x0540a

>  <ref_mols>  (58) 
x0436a

>  <HIPPO Compound ID>  (58) 
594391

>  <energy_score>  (58) 
-48.216454

>  <tags>  (58) 
CpKRS_FrAncestor_bulkdock_iter1,CpKRS_FrAncestor_bulkdock_iter1_cluster_best5,fragmenstein_placed,CpKRS_FrAncestor_bulkdock_iter1_exported,BulkDock Fragalysis export

>  <inchikey>  (58) 
HXRYBXOENUDEKQ-UHFFFAOYSA-N

>  <placement_batch>  (58) 
CpKRS_FrAncestor_bulkdock_iter1_cluster_best5

>  <alias>  (58) 
C594391-P18

>  <name>  (58) 
C594391-P18

>  <smiles>  (58) 
C=C(c1cc(OC(F)(F)F)ccc1N)[C@H](C)O

>  <subsites>  (58) 


>  <distance_score>  (58) 
0.420785

$$$$
C594393-P19
     RDKit          3D

 17 17  0  0  0  0  0  0  0  0999 V2000
    5.2213    9.7783   40.6428 C   0  0  0  0  0  0  0  0  0  0  0  0
    4.2285    8.8694   40.6624 C   0  0  0  0  0  0  0  0  0  0  0  0
    4.5355    7.4507   40.9810 C   0  0  0  0  0  0  0  0  0  0  0  0
    3.8233    6.8312   42.0236 C   0  0  0  0  0  0  0  0  0  0  0  0
    4.0916    5.5151   42.4132 C   0  0  0  0  0  0  0  0  0  0  0  0
    5.0890    4.7906   41.7681 C   0  0  0  0  0  0  0  0  0  0  0  0
    5.5594    3.5636   42.1380 O   0  0  0  0  0  0  0  0  0  0  0  0
    4.7848    2.8166   43.0530 C   0  0  0  0  0  0  0  0  0  0  0  0
    3.5176    2.6623   42.6181 F   0  0  0  0  0  0  0  0  0  0  0  0
    5.3303    1.5952   43.2500 F   0  0  0  0  0  0  0  0  0  0  0  0
    4.7434    3.4251   44.2551 F   0  0  0  0  0  0  0  0  0  0  0  0
    5.7656    5.3769   40.6967 C   0  0  0  0  0  0  0  0  0  0  0  0
    5.5399    6.7114   40.3208 C   0  0  0  0  0  0  0  0  0  0  0  0
    6.1949    7.1791   39.1702 N   0  0  0  0  0  0  0  0  0  0  0  0
    2.7793    9.2609   40.4562 C   0  0  2  0  0  0  0  0  0  0  0  0
    2.4522    9.4583   38.9831 C   0  0  0  0  0  0  0  0  0  0  0  0
    2.5080   10.4847   41.1472 O   0  0  0  0  0  0  0  0  0  0  0  0
  1  2  2  0
  2  3  1  0
  3  4  2  0
  4  5  1  0
  5  6  2  0
  6  7  1  0
  7  8  1  0
  8  9  1  0
  8 10  1  0
  8 11  1  0
  6 12  1  0
 12 13  2  0
 13 14  1  0
  2 15  1  0
 15 16  1  6
 15 17  1  0
 13  3  1  0
M  END
>  <inspiration_score>  (59) 
0.523

>  <HIPPO Pose ID>  (59) 
127466

>  <ref_pdb>  (59) 
x0540a

>  <ref_mols>  (59) 
x0436b

>  <HIPPO Compound ID>  (59) 
594393

>  <energy_score>  (59) 
-51.480392

>  <tags>  (59) 
CpKRS_FrAncestor_bulkdock_iter1,CpKRS_FrAncestor_bulkdock_iter1_cluster_best5,fragmenstein_placed,CpKRS_FrAncestor_bulkdock_iter1_exported,BulkDock Fragalysis export

>  <inchikey>  (59) 
SSIPCRJDTTZWDC-UHFFFAOYSA-N

>  <placement_batch>  (59) 
CpKRS_FrAncestor_bulkdock_iter1_cluster_best5

>  <alias>  (59) 
C594393-P19

>  <name>  (59) 
C594393-P19

>  <smiles>  (59) 
C=C(c1ccc(OC(F)(F)F)cc1N)[C@H](C)O

>  <subsites>  (59) 


>  <distance_score>  (59) 
0.880821

$$$$
C594441-P18
     RDKit          3D

 17 17  0  0  0  0  0  0  0  0999 V2000
    1.4007   10.9793   40.5818 C   0  0  0  0  0  0  0  0  0  0  0  0
    2.4389   10.5661   41.6141 C   0  0  1  0  0  0  0  0  0  0  0  0
    1.8995   10.7969   42.9057 O   0  0  0  0  0  0  0  0  0  0  0  0
    2.7790    9.1125   41.4999 C   0  0  0  0  0  0  0  0  0  0  0  0
    4.0147    8.6819   41.2054 C   0  0  0  0  0  0  0  0  0  0  0  0
    4.4130    7.2718   41.0631 C   0  0  0  0  0  0  0  0  0  0  0  0
    4.0233    6.3196   42.0286 C   0  0  0  0  0  0  0  0  0  0  0  0
    4.5411    5.0229   41.9907 C   0  0  0  0  0  0  0  0  0  0  0  0
    4.2998    4.0185   42.8800 O   0  0  0  0  0  0  0  0  0  0  0  0
    3.6834    4.3420   44.1076 C   0  0  0  0  0  0  0  0  0  0  0  0
    2.3673    4.5624   43.9326 F   0  0  0  0  0  0  0  0  0  0  0  0
    4.2422    5.4238   44.6898 F   0  0  0  0  0  0  0  0  0  0  0  0
    3.8321    3.2974   44.9516 F   0  0  0  0  0  0  0  0  0  0  0  0
    5.4336    4.6783   40.9773 C   0  0  0  0  0  0  0  0  0  0  0  0
    5.8101    5.6087   40.0122 C   0  0  0  0  0  0  0  0  0  0  0  0
    5.2694    6.8944   40.0071 C   0  0  0  0  0  0  0  0  0  0  0  0
    5.7531    7.8186   39.0616 N   0  0  0  0  0  0  0  0  0  0  0  0
  2  1  1  6
  2  3  1  0
  2  4  1  0
  4  5  2  3
  5  6  1  0
  6  7  2  0
  7  8  1  0
  8  9  1  0
  9 10  1  0
 10 11  1  0
 10 12  1  0
 10 13  1  0
  8 14  2  0
 14 15  1  0
 15 16  2  0
 16 17  1  0
 16  6  1  0
M  END
>  <inspiration_score>  (60) 
0.72

>  <HIPPO Pose ID>  (60) 
127562

>  <ref_pdb>  (60) 
x0540a

>  <ref_mols>  (60) 
x0436a

>  <HIPPO Compound ID>  (60) 
594441

>  <energy_score>  (60) 
-47.155229

>  <tags>  (60) 
CpKRS_FrAncestor_bulkdock_iter1,CpKRS_FrAncestor_bulkdock_iter1_cluster_best5,fragmenstein_placed,CpKRS_FrAncestor_bulkdock_iter1_exported,BulkDock Fragalysis export

>  <inchikey>  (60) 
QXFVHIIRJFQDKQ-UHFFFAOYSA-N

>  <placement_batch>  (60) 
CpKRS_FrAncestor_bulkdock_iter1_cluster_best5

>  <alias>  (60) 
C594441-P18

>  <name>  (60) 
C594441-P18

>  <smiles>  (60) 
C[C@@H](O)C=Cc1cc(OC(F)(F)F)ccc1N

>  <subsites>  (60) 


>  <distance_score>  (60) 
0.364814

$$$$
C451580-P19
     RDKit          3D

 18 18  0  0  0  0  0  0  0  0999 V2000
    1.8198    6.2165   35.0698 C   0  0  0  0  0  0  0  0  0  0  0  0
    2.4956    6.7545   36.2197 N   0  0  0  0  0  0  0  0  0  0  0  0
    1.9609    7.2210   37.6345 C   0  0  0  0  0  0  0  0  0  0  0  0
    0.5504    7.3401   38.1863 S   0  0  0  0  0  0  0  0  0  0  0  0
    3.3738    7.5568   38.2791 N   0  0  0  0  0  0  0  0  0  0  0  0
    3.7529    7.9878   39.6201 C   0  0  1  0  0  0  0  0  0  0  0  0
    2.7769    8.9347   40.3134 C   0  0  0  0  0  0  0  0  0  0  0  0
    4.2039    6.7782   40.4200 C   0  0  0  0  0  0  0  0  0  0  0  0
    5.4434    6.1950   40.0943 C   0  0  0  0  0  0  0  0  0  0  0  0
    5.8841    5.0351   40.7261 C   0  0  0  0  0  0  0  0  0  0  0  0
    5.1029    4.4445   41.7127 C   0  0  0  0  0  0  0  0  0  0  0  0
    3.8915    5.0289   42.0783 C   0  0  0  0  0  0  0  0  0  0  0  0
    3.0686    4.4725   43.0187 O   0  0  0  0  0  0  0  0  0  0  0  0
    3.7091    4.3339   44.2818 C   0  0  0  0  0  0  0  0  0  0  0  0
    4.3510    5.4693   44.6359 F   0  0  0  0  0  0  0  0  0  0  0  0
    2.7725    4.0872   45.2254 F   0  0  0  0  0  0  0  0  0  0  0  0
    4.5756    3.2996   44.2893 F   0  0  0  0  0  0  0  0  0  0  0  0
    3.4283    6.1728   41.4190 C   0  0  0  0  0  0  0  0  0  0  0  0
  1  2  1  0
  2  3  1  0
  3  4  2  0
  3  5  1  0
  5  6  1  0
  6  7  1  1
  6  8  1  0
  8  9  2  0
  9 10  1  0
 10 11  2  0
 11 12  1  0
 12 13  1  0
 13 14  1  0
 14 15  1  0
 14 16  1  0
 14 17  1  0
 12 18  2  0
 18  8  1  0
M  END
>  <inspiration_score>  (61) 
0.53

>  <HIPPO Pose ID>  (61) 
129189

>  <ref_pdb>  (61) 
x0540a

>  <ref_mols>  (61) 
x0436b

>  <HIPPO Compound ID>  (61) 
451580

>  <energy_score>  (61) 
-37.996522

>  <tags>  (61) 
CpKRS_FrAncestor_bulkdock_iter1,CpKRS_FrAncestor_bulkdock_iter1_cluster_best5,fragmenstein_placed,CpKRS_FrAncestor_bulkdock_iter1_exported,BulkDock Fragalysis export

>  <inchikey>  (61) 
ZBQUXCSMZIYLSM-UHFFFAOYSA-N

>  <placement_batch>  (61) 
CpKRS_FrAncestor_bulkdock_iter1_cluster_best5

>  <alias>  (61) 
C451580-P19

>  <name>  (61) 
C451580-P19

>  <smiles>  (61) 
CNC(=S)N[C@@H](C)c1cccc(OC(F)(F)F)c1

>  <subsites>  (61) 


>  <distance_score>  (61) 
0.811366

$$$$
C597059-P51
     RDKit          3D

 18 18  0  0  0  0  0  0  0  0999 V2000
    0.7867   -8.5561   23.9366 C   0  0  0  0  0  0  0  0  0  0  0  0
    0.3935   -9.6855   23.8275 C   0  0  0  0  0  0  0  0  0  0  0  0
   -0.0831  -11.0666   23.7790 C   0  0  0  0  0  0  0  0  0  0  0  0
    0.9269  -11.9571   24.2667 N   0  0  0  0  0  0  0  0  0  0  0  0
    0.8454  -13.4366   24.6598 C   0  0  0  0  0  0  0  0  0  0  0  0
   -0.0378  -14.1924   24.5785 O   0  0  0  0  0  0  0  0  0  0  0  0
    2.1015  -13.8886   25.3349 C   0  0  0  0  0  0  0  0  0  0  0  0
    1.9197  -14.6567   26.4841 C   0  0  0  0  0  0  0  0  0  0  0  0
    3.0264  -15.1580   27.1556 C   0  0  0  0  0  0  0  0  0  0  0  0
    2.7893  -15.9660   28.4169 C   0  0  0  0  0  0  0  0  0  0  0  0
    2.9973  -17.3004   28.2591 F   0  0  0  0  0  0  0  0  0  0  0  0
    3.5725  -15.6162   29.4718 F   0  0  0  0  0  0  0  0  0  0  0  0
    1.5050  -15.8527   28.8867 F   0  0  0  0  0  0  0  0  0  0  0  0
    4.2919  -14.9415   26.7039 N   0  0  0  0  0  0  0  0  0  0  0  0
    4.4376  -14.1833   25.5847 C   0  0  0  0  0  0  0  0  0  0  0  0
    3.3895  -13.6233   24.8645 C   0  0  0  0  0  0  0  0  0  0  0  0
    3.5003  -12.8510   23.7480 O   0  0  0  0  0  0  0  0  0  0  0  0
    4.7800  -12.6668   23.1789 C   0  0  0  0  0  0  0  0  0  0  0  0
  1  2  3  0
  2  3  1  0
  3  4  1  0
  4  5  1  0
  5  6  2  0
  5  7  1  0
  7  8  2  0
  8  9  1  0
  9 10  1  0
 10 11  1  0
 10 12  1  0
 10 13  1  0
  9 14  2  0
 14 15  1  0
 15 16  2  0
 16 17  1  0
 17 18  1  0
 16  7  1  0
M  END
>  <inspiration_score>  (62) 
0.485

>  <HIPPO Pose ID>  (62) 
132924

>  <ref_pdb>  (62) 
x0634a

>  <ref_mols>  (62) 
x0634b

>  <HIPPO Compound ID>  (62) 
597059

>  <energy_score>  (62) 
-212.782302

>  <tags>  (62) 
CpKRS_FrAncestor_bulkdock_iter1,CpKRS_FrAncestor_bulkdock_iter1_cluster_best5,fragmenstein_placed,CpKRS_FrAncestor_bulkdock_iter1_exported,BulkDock Fragalysis export

>  <inchikey>  (62) 
ZBOXAKJQXFXFOG-UHFFFAOYSA-N

>  <placement_batch>  (62) 
CpKRS_FrAncestor_bulkdock_iter1_cluster_best5

>  <alias>  (62) 
C597059-P51

>  <name>  (62) 
C597059-P51

>  <smiles>  (62) 
C#CCNC(=O)c1cc(C(F)(F)F)ncc1OC

>  <subsites>  (62) 


>  <distance_score>  (62) 
0.729341

$$$$
C603493-P52
     RDKit          3D

 18 18  0  0  0  0  0  0  0  0999 V2000
   30.0420   10.4819   27.8910 C   0  0  0  0  0  0  0  0  0  0  0  0
   29.5864    9.7647   27.0406 C   0  0  0  0  0  0  0  0  0  0  0  0
   29.0375    8.8575   25.9887 C   0  0  0  0  0  0  0  0  0  0  0  0
   30.1623    8.5323   24.9937 C   0  0  0  0  0  0  0  0  0  0  0  0
   28.6114    7.5746   26.7316 C   0  0  0  0  0  0  0  0  0  0  0  0
   27.8382    9.5062   25.3148 N   0  0  0  0  0  0  0  0  0  0  0  0
   28.0466   10.9564   25.0001 C   0  0  0  0  0  0  0  0  0  0  0  0
   27.1482    8.6537   23.9843 S   0  0  0  0  0  0  0  0  0  0  0  0
   26.9654    7.2653   24.3499 O   0  0  0  0  0  0  0  0  0  0  0  0
   27.9044    8.9983   22.8008 O   0  0  0  0  0  0  0  0  0  0  0  0
   25.4906    9.3419   23.8788 C   0  0  0  0  0  0  0  0  0  0  0  0
   24.5663    8.8565   24.8241 C   0  0  0  0  0  0  0  0  0  0  0  0
   23.2313    9.2622   24.7931 C   0  0  0  0  0  0  0  0  0  0  0  0
   22.8130   10.1505   23.8126 C   0  0  0  0  0  0  0  0  0  0  0  0
   21.1692   10.6528   23.7531 Cl  0  0  0  0  0  0  0  0  0  0  0  0
   23.7202   10.6294   22.8673 C   0  0  0  0  0  0  0  0  0  0  0  0
   25.0717   10.2342   22.8756 C   0  0  0  0  0  0  0  0  0  0  0  0
   25.9600   10.7626   21.7833 C   0  0  0  0  0  0  0  0  0  0  0  0
  1  2  3  0
  2  3  1  0
  3  4  1  0
  3  5  1  0
  3  6  1  0
  6  7  1  0
  6  8  1  0
  8  9  2  0
  8 10  2  0
  8 11  1  0
 11 12  2  0
 12 13  1  0
 13 14  2  0
 14 15  1  0
 14 16  1  0
 16 17  2  0
 17 18  1  0
 17 11  1  0
M  END
>  <inspiration_score>  (63) 
0.458

>  <HIPPO Pose ID>  (63) 
144738

>  <ref_pdb>  (63) 
x0555a

>  <ref_mols>  (63) 
x0639a

>  <HIPPO Compound ID>  (63) 
603493

>  <energy_score>  (63) 
-83.30942

>  <tags>  (63) 
CpKRS_FrAncestor_bulkdock_iter1,CpKRS_FrAncestor_bulkdock_iter1_cluster_best5,fragmenstein_placed,CpKRS_FrAncestor_bulkdock_iter1_exported,BulkDock Fragalysis export

>  <inchikey>  (63) 
WKCSVLVAVYMBTR-UHFFFAOYSA-N

>  <placement_batch>  (63) 
CpKRS_FrAncestor_bulkdock_iter1_cluster_best5

>  <alias>  (63) 
C603493-P52

>  <name>  (63) 
C603493-P52

>  <smiles>  (63) 
C#CC(C)(C)N(C)S(=O)(=O)c1ccc(Cl)cc1C

>  <subsites>  (63) 


>  <distance_score>  (63) 
0.460971

$$$$
C603613-P37
     RDKit          3D

 18 18  0  0  0  0  0  0  0  0999 V2000
    4.5090  -14.7526   23.5292 C   0  0  0  0  0  0  0  0  0  0  0  0
    4.6075  -13.9748   24.4408 C   0  0  0  0  0  0  0  0  0  0  0  0
    4.7330  -12.9938   25.5551 C   0  0  0  0  0  0  0  0  0  0  0  0
    6.0677  -13.2377   26.1597 C   0  0  0  0  0  0  0  0  0  0  0  0
    7.1973  -13.4545   26.5051 C   0  0  0  0  0  0  0  0  0  0  0  0
    3.5704  -13.2710   26.5646 C   0  0  0  0  0  0  0  0  0  0  0  0
    3.4996  -12.3418   27.6614 O   0  0  0  0  0  0  0  0  0  0  0  0
    3.3362  -11.0141   27.1836 C   0  0  0  0  0  0  0  0  0  0  0  0
    4.5292  -10.6364   26.3191 C   0  0  0  0  0  0  0  0  0  0  0  0
    4.7166  -11.5366   25.1190 N   0  0  0  0  0  0  0  0  0  0  0  0
    3.6844  -11.2651   23.8381 S   0  0  0  0  0  0  0  0  0  0  0  0
    4.2031  -11.8046   22.6101 O   0  0  0  0  0  0  0  0  0  0  0  0
    2.3606  -11.6257   24.2908 O   0  0  0  0  0  0  0  0  0  0  0  0
    3.7178   -9.5898   23.6871 N   0  0  0  0  0  0  0  0  0  0  0  0
    2.3961   -9.0952   23.3087 C   0  0  0  0  0  0  0  0  0  0  0  0
    4.8974   -8.8573   23.0972 C   0  0  0  0  0  0  0  0  0  0  0  0
    5.3727   -9.3788   21.7475 C   0  0  0  0  0  0  0  0  0  0  0  0
    6.0676   -8.7462   24.0675 C   0  0  0  0  0  0  0  0  0  0  0  0
  1  2  3  0
  2  3  1  0
  3  4  1  0
  4  5  3  0
  3  6  1  0
  6  7  1  0
  7  8  1  0
  8  9  1  0
  9 10  1  0
 10 11  1  0
 11 12  2  0
 11 13  2  0
 11 14  1  0
 14 15  1  0
 14 16  1  0
 16 17  1  0
 16 18  1  0
 10  3  1  0
M  END
>  <inspiration_score>  (64) 
0.66

>  <HIPPO Pose ID>  (64) 
145108

>  <ref_pdb>  (64) 
x0555a

>  <ref_mols>  (64) 
x0540b

>  <HIPPO Compound ID>  (64) 
603613

>  <energy_score>  (64) 
-62.362341

>  <tags>  (64) 
CpKRS_FrAncestor_bulkdock_iter1,CpKRS_FrAncestor_bulkdock_iter1_cluster_best5,fragmenstein_placed,CpKRS_FrAncestor_bulkdock_iter1_exported,BulkDock Fragalysis export

>  <inchikey>  (64) 
KUJGBDIWMCCEGQ-UHFFFAOYSA-N

>  <placement_batch>  (64) 
CpKRS_FrAncestor_bulkdock_iter1_cluster_best5

>  <alias>  (64) 
C603613-P37

>  <name>  (64) 
C603613-P37

>  <smiles>  (64) 
C#CC1(C#C)COCCN1S(=O)(=O)N(C)C(C)C

>  <subsites>  (64) 


>  <distance_score>  (64) 
0.660421

$$$$
C685192-P51
     RDKit          3D

 12 12  0  0  0  0  0  0  0  0999 V2000
   -1.3087  -12.6424   26.6722 C   0  0  0  0  0  0  0  0  0  0  0  0
    0.1294  -13.0701   26.9370 C   0  0  0  0  0  0  0  0  0  0  0  0
    0.5139  -14.0670   25.9360 N   0  0  0  0  0  0  0  0  0  0  0  0
    1.9413  -14.1572   25.8421 C   0  0  0  0  0  0  0  0  0  0  0  0
    2.6444  -15.0130   26.6890 C   0  0  0  0  0  0  0  0  0  0  0  0
    4.0274  -15.0705   26.5716 C   0  0  0  0  0  0  0  0  0  0  0  0
    4.7554  -14.3330   25.7002 N   0  0  0  0  0  0  0  0  0  0  0  0
    4.0557  -13.4863   24.9093 C   0  0  0  0  0  0  0  0  0  0  0  0
    4.8250  -12.6338   24.1539 O   0  0  0  0  0  0  0  0  0  0  0  0
    4.8156  -13.0099   22.7847 C   0  0  0  0  0  0  0  0  0  0  0  0
    2.6690  -13.3409   24.9586 C   0  0  0  0  0  0  0  0  0  0  0  0
    1.8343  -12.1573   23.9982 Cl  0  0  0  0  0  0  0  0  0  0  0  0
  1  2  1  0
  2  3  1  0
  3  4  1  0
  4  5  2  0
  5  6  1  0
  6  7  2  0
  7  8  1  0
  8  9  1  0
  9 10  1  0
  8 11  2  0
 11 12  1  0
 11  4  1  0
M  END
>  <inspiration_score>  (65) 
0.544

>  <HIPPO Pose ID>  (65) 
156645

>  <ref_pdb>  (65) 
x0602b

>  <ref_mols>  (65) 
x0634b

>  <HIPPO Compound ID>  (65) 
685192

>  <energy_score>  (65) 
-96.87967

>  <tags>  (65) 
CpKRS_FrAncestor_bulkdock_iter1,CpKRS_FrAncestor_bulkdock_iter1_cluster_best5,fragmenstein_placed,CpKRS_FrAncestor_bulkdock_iter1_exported,BulkDock Fragalysis export

>  <inchikey>  (65) 
AVCFOKJWDFKYQB-UHFFFAOYSA-N

>  <placement_batch>  (65) 
CpKRS_FrAncestor_bulkdock_iter1_cluster_best5

>  <alias>  (65) 
C685192-P51

>  <name>  (65) 
C685192-P51

>  <smiles>  (65) 
CCNc1ccnc(OC)c1Cl

>  <subsites>  (65) 


>  <distance_score>  (65) 
0.951696

$$$$
C687391-P51
     RDKit          3D

 13 13  0  0  0  0  0  0  0  0999 V2000
    4.3394  -12.4543   22.9321 C   0  0  0  0  0  0  0  0  0  0  0  0
    5.0013  -13.3169   23.8400 O   0  0  0  0  0  0  0  0  0  0  0  0
    4.2669  -13.8240   24.8737 C   0  0  0  0  0  0  0  0  0  0  0  0
    2.8969  -13.6306   25.0458 C   0  0  0  0  0  0  0  0  0  0  0  0
    2.2483  -14.1097   26.1847 C   0  0  0  0  0  0  0  0  0  0  0  0
    0.8847  -13.9275   26.4385 N   0  0  0  0  0  0  0  0  0  0  0  0
   -0.0393  -13.0389   25.7323 C   0  0  0  0  0  0  0  0  0  0  0  0
   -0.5124  -13.6606   24.4219 C   0  0  0  0  0  0  0  0  0  0  0  0
    0.4685  -11.6109   25.5670 C   0  0  0  0  0  0  0  0  0  0  0  0
    3.0269  -14.8893   27.0551 C   0  0  0  0  0  0  0  0  0  0  0  0
    2.3095  -15.6489   28.6367 Br  0  0  0  0  0  0  0  0  0  0  0  0
    4.3754  -15.0755   26.7888 C   0  0  0  0  0  0  0  0  0  0  0  0
    5.0190  -14.5362   25.7354 N   0  0  0  0  0  0  0  0  0  0  0  0
  1  2  1  0
  2  3  1  0
  3  4  2  0
  4  5  1  0
  5  6  1  0
  6  7  1  0
  7  8  1  0
  7  9  1  0
  5 10  2  0
 10 11  1  0
 10 12  1  0
 12 13  2  0
 13  3  1  0
M  END
>  <inspiration_score>  (66) 
0.688

>  <HIPPO Pose ID>  (66) 
161958

>  <ref_pdb>  (66) 
x0540b

>  <ref_mols>  (66) 
x0634b

>  <HIPPO Compound ID>  (66) 
687391

>  <energy_score>  (66) 
-153.396587

>  <tags>  (66) 
CpKRS_FrAncestor_bulkdock_iter1,CpKRS_FrAncestor_bulkdock_iter1_cluster_best5,fragmenstein_placed,CpKRS_FrAncestor_bulkdock_iter1_exported,BulkDock Fragalysis export

>  <inchikey>  (66) 
OCHGRKJDRANFMW-UHFFFAOYSA-N

>  <placement_batch>  (66) 
CpKRS_FrAncestor_bulkdock_iter1_cluster_best5

>  <alias>  (66) 
C687391-P51

>  <name>  (66) 
C687391-P51

>  <smiles>  (66) 
COc1cc(NC(C)C)c(Br)cn1

>  <subsites>  (66) 


>  <distance_score>  (66) 
0.589733

$$$$
C687641-P36
     RDKit          3D

 13 13  0  0  0  0  0  0  0  0999 V2000
    5.2446  -13.5273   25.7606 C   0  0  0  0  0  0  0  0  0  0  0  0
    4.0247  -12.7357   25.2871 C   0  0  1  0  0  0  0  0  0  0  0  0
    2.7721  -12.9057   26.1723 C   0  0  0  0  0  0  0  0  0  0  0  0
    2.5460  -11.8851   27.1479 O   0  0  0  0  0  0  0  0  0  0  0  0
    3.7510  -11.2437   27.5397 C   0  0  0  0  0  0  0  0  0  0  0  0
    4.3698  -10.4866   26.3724 C   0  0  0  0  0  0  0  0  0  0  0  0
    4.4090  -11.2929   25.1118 N   0  0  0  0  0  0  0  0  0  0  0  0
    3.6708  -10.5846   23.7744 S   0  0  0  0  0  0  0  0  0  0  0  0
    3.8982  -11.4315   22.6299 O   0  0  0  0  0  0  0  0  0  0  0  0
    2.3397  -10.1418   24.1242 O   0  0  0  0  0  0  0  0  0  0  0  0
    4.5994   -9.1828   23.5377 N   0  0  0  0  0  0  0  0  0  0  0  0
    6.0592   -9.3806   23.5705 C   0  0  0  0  0  0  0  0  0  0  0  0
    4.2659   -8.5505   22.2451 C   0  0  0  0  0  0  0  0  0  0  0  0
  2  1  1  1
  2  3  1  0
  3  4  1  0
  4  5  1  0
  5  6  1  0
  6  7  1  0
  7  8  1  0
  8  9  2  0
  8 10  2  0
  8 11  1  0
 11 12  1  0
 11 13  1  0
  7  2  1  0
M  END
>  <inspiration_score>  (67) 
0.667

>  <HIPPO Pose ID>  (67) 
162461

>  <ref_pdb>  (67) 
x0540b

>  <ref_mols>  (67) 
x0540a

>  <HIPPO Compound ID>  (67) 
687641

>  <energy_score>  (67) 
-52.074201

>  <tags>  (67) 
CpKRS_FrAncestor_bulkdock_iter1,CpKRS_FrAncestor_bulkdock_iter1_cluster_best5,fragmenstein_placed,CpKRS_FrAncestor_bulkdock_iter1_exported,BulkDock Fragalysis export

>  <inchikey>  (67) 
AYFHPPFQYWXQPO-UHFFFAOYSA-N

>  <placement_batch>  (67) 
CpKRS_FrAncestor_bulkdock_iter1_cluster_best5

>  <alias>  (67) 
C687641-P36

>  <name>  (67) 
C687641-P36

>  <smiles>  (67) 
C[C@H]1COCCN1S(=O)(=O)N(C)C

>  <subsites>  (67) 


>  <distance_score>  (67) 
0.924293

$$$$
C449317-P51
     RDKit          3D

 13 13  0  0  0  0  0  0  0  0999 V2000
    6.9550  -14.5004   26.0532 C   0  0  0  0  0  0  0  0  0  0  0  0
    6.1408  -15.3410   26.9848 C   0  0  0  0  0  0  0  0  0  0  0  0
    4.8181  -15.4718   27.1557 C   0  0  0  0  0  0  0  0  0  0  0  0
    3.7989  -14.7422   26.4206 C   0  0  0  0  0  0  0  0  0  0  0  0
    4.2761  -14.1551   25.3113 N   0  0  0  0  0  0  0  0  0  0  0  0
    3.4836  -13.3764   24.5866 C   0  0  0  0  0  0  0  0  0  0  0  0
    4.1763  -12.8103   23.5665 O   0  0  0  0  0  0  0  0  0  0  0  0
    3.4538  -11.9468   22.7236 C   0  0  0  0  0  0  0  0  0  0  0  0
    2.1572  -13.1827   24.9244 C   0  0  0  0  0  0  0  0  0  0  0  0
    1.6537  -13.8115   26.0700 C   0  0  0  0  0  0  0  0  0  0  0  0
    2.4852  -14.6034   26.8649 C   0  0  0  0  0  0  0  0  0  0  0  0
    2.0158  -15.2641   28.1314 C   0  0  0  0  0  0  0  0  0  0  0  0
    0.7304  -14.8052   28.5535 O   0  0  0  0  0  0  0  0  0  0  0  0
  1  2  1  0
  2  3  2  3
  3  4  1  0
  4  5  2  0
  5  6  1  0
  6  7  1  0
  7  8  1  0
  6  9  2  0
  9 10  1  0
 10 11  2  0
 11 12  1  0
 12 13  1  0
 11  4  1  0
M  END
>  <inspiration_score>  (68) 
0.578

>  <HIPPO Pose ID>  (68) 
167114

>  <ref_pdb>  (68) 
x0540b

>  <ref_mols>  (68) 
x0634b

>  <HIPPO Compound ID>  (68) 
449317

>  <energy_score>  (68) 
-90.895258

>  <tags>  (68) 
CpKRS_FrAncestor_bulkdock_iter1,CpKRS_FrAncestor_bulkdock_iter1_cluster_best5,fragmenstein_placed,CpKRS_FrAncestor_bulkdock_iter1_exported,BulkDock Fragalysis export

>  <inchikey>  (68) 
IILAWLPFGAGUFB-UHFFFAOYSA-N

>  <placement_batch>  (68) 
CpKRS_FrAncestor_bulkdock_iter1_cluster_best5

>  <alias>  (68) 
C449317-P51

>  <name>  (68) 
C449317-P51

>  <smiles>  (68) 
CC=Cc1nc(OC)ccc1CO

>  <subsites>  (68) 


>  <distance_score>  (68) 
0.914769

$$$$
HILDMJAGUOJSAW-UHFFFAOYSA-N-P48
     RDKit          3D

 14 14  0  0  0  0  0  0  0  0999 V2000
    4.9356  -17.0190   25.8049 C   0  0  0  0  0  0  0  0  0  0  0  0
    4.2344  -16.0899   26.0952 C   0  0  0  0  0  0  0  0  0  0  0  0
    3.3669  -14.9728   26.2434 C   0  0  0  0  0  0  0  0  0  0  0  0
    2.0502  -14.9226   27.3323 S   0  0  0  0  0  0  0  0  0  0  0  0
    1.5537  -13.4378   26.6410 C   0  0  0  0  0  0  0  0  0  0  0  0
    2.3060  -12.9635   25.6706 N   0  0  0  0  0  0  0  0  0  0  0  0
    3.4033  -13.8196   25.4757 C   0  0  0  0  0  0  0  0  0  0  0  0
    4.4493  -13.5028   24.4752 C   0  0  0  0  0  0  0  0  0  0  0  0
    5.4701  -14.0610   24.4600 O   0  0  0  0  0  0  0  0  0  0  0  0
    3.9167  -12.3830   23.5771 N   0  0  0  0  0  0  0  0  0  0  0  0
    4.4838  -11.7763   22.4135 C   0  0  0  0  0  0  0  0  0  0  0  0
    4.7786  -10.3273   22.6449 C   0  0  0  0  0  0  0  0  0  0  0  0
    4.3112   -9.5795   23.6022 C   0  0  0  0  0  0  0  0  0  0  0  0
    3.8292   -8.8923   24.5903 C   0  0  0  0  0  0  0  0  0  0  0  0
  1  2  3  0
  2  3  1  0
  3  4  1  0
  4  5  1  0
  5  6  2  0
  6  7  1  0
  7  8  1  0
  8  9  2  0
  8 10  1  0
 10 11  1  0
 11 12  1  0
 12 13  2  0
 13 14  2  0
  7  3  2  0
M  END
>  <inspiration_score>  (69) 
0.622

>  <HIPPO Pose ID>  (69) 
175241

>  <ref_pdb>  (69) 
x0504c

>  <ref_mols>  (69) 
x0504a

>  <HIPPO Compound ID>  (69) 
692986

>  <energy_score>  (69) 
-267.414385

>  <tags>  (69) 
CpKRS_FrAncestor_bulkdock_iter1,CpKRS_FrAncestor_bulkdock_iter1_cluster_best5,fragmenstein_placed,CpKRS_FrAncestor_bulkdock_iter1_exported,BulkDock Fragalysis export

>  <inchikey>  (69) 
HILDMJAGUOJSAW-UHFFFAOYSA-N

>  <placement_batch>  (69) 
CpKRS_FrAncestor_bulkdock_iter1_cluster_best5

>  <alias>  (69) 
HILDMJAGUOJSAW-UHFFFAOYSA-N-P48

>  <name>  (69) 
HILDMJAGUOJSAW-UHFFFAOYSA-N-P48

>  <smiles>  (69) 
C#Cc1scnc1C(=O)NCC=C=C

>  <subsites>  (69) 


>  <distance_score>  (69) 
0.674715

$$$$
XQRTVNLQUFIQQO-UHFFFAOYSA-N-P60
     RDKit          3D

 18 19  0  0  0  0  0  0  0  0999 V2000
   -2.8943  -22.6079   24.5175 C   0  0  0  0  0  0  0  0  0  0  0  0
   -2.5011  -23.4439   25.6075 O   0  0  0  0  0  0  0  0  0  0  0  0
   -2.1552  -24.6999   25.1793 C   0  0  0  0  0  0  0  0  0  0  0  0
   -1.2730  -24.9014   24.1140 C   0  0  0  0  0  0  0  0  0  0  0  0
   -1.0974  -26.1815   23.5868 C   0  0  0  0  0  0  0  0  0  0  0  0
   -1.8019  -27.2680   24.1218 C   0  0  0  0  0  0  0  0  0  0  0  0
   -1.7940  -28.6108   23.4240 C   0  0  0  0  0  0  0  0  0  0  0  0
   -0.4914  -29.3033   23.4068 N   0  0  0  0  0  0  0  0  0  0  0  0
   -0.0800  -29.7014   24.7733 C   0  0  2  0  0  0  0  0  0  0  0  0
    1.4327  -29.9849   24.8060 C   0  0  0  0  0  0  0  0  0  0  0  0
   -0.9045  -30.8733   25.3724 C   0  0  0  0  0  0  0  0  0  0  0  0
   -1.4801  -31.7625   24.4055 O   0  0  0  0  0  0  0  0  0  0  0  0
   -0.6685  -31.8591   23.2358 C   0  0  0  0  0  0  0  0  0  0  0  0
   -0.5997  -30.4950   22.5120 C   0  0  2  0  0  0  0  0  0  0  0  0
    0.5318  -30.4739   21.4825 C   0  0  0  0  0  0  0  0  0  0  0  0
   -2.5877  -27.0743   25.2684 C   0  0  0  0  0  0  0  0  0  0  0  0
   -2.7473  -25.7975   25.8056 C   0  0  0  0  0  0  0  0  0  0  0  0
   -3.7467  -25.6043   27.1998 Cl  0  0  0  0  0  0  0  0  0  0  0  0
  1  2  1  0
  2  3  1  0
  3  4  2  0
  4  5  1  0
  5  6  2  0
  6  7  1  0
  7  8  1  0
  8  9  1  0
  9 10  1  6
  9 11  1  0
 11 12  1  0
 12 13  1  0
 13 14  1  0
 14 15  1  6
  6 16  1  0
 16 17  2  0
 17 18  1  0
 17  3  1  0
 14  8  1  0
M  END
>  <inspiration_score>  (70) 
0.897

>  <HIPPO Pose ID>  (70) 
178113

>  <ref_pdb>  (70) 
x0504c

>  <ref_mols>  (70) 
x0675b

>  <HIPPO Compound ID>  (70) 
693932

>  <energy_score>  (70) 
-102.545808

>  <tags>  (70) 
CpKRS_FrAncestor_bulkdock_iter1,CpKRS_FrAncestor_bulkdock_iter1_cluster_best5,fragmenstein_placed,CpKRS_FrAncestor_bulkdock_iter1_exported,BulkDock Fragalysis export

>  <inchikey>  (70) 
XQRTVNLQUFIQQO-UHFFFAOYSA-N

>  <placement_batch>  (70) 
CpKRS_FrAncestor_bulkdock_iter1_cluster_best5

>  <alias>  (70) 
XQRTVNLQUFIQQO-UHFFFAOYSA-N-P60

>  <name>  (70) 
XQRTVNLQUFIQQO-UHFFFAOYSA-N-P60

>  <smiles>  (70) 
COc1ccc(CN2C(C)COCC2C)cc1Cl

>  <subsites>  (70) 


>  <distance_score>  (70) 
0.547241

$$$$
C694209-P59
     RDKit          3D

 18 19  0  0  0  0  0  0  0  0999 V2000
    1.4404  -27.8614   18.0252 C   0  0  0  0  0  0  0  0  0  0  0  0
    2.3128  -26.6188   18.2262 C   0  0  1  0  0  0  0  0  0  0  0  0
    2.1356  -25.8476   17.0245 O   0  0  0  0  0  0  0  0  0  0  0  0
    2.4809  -24.4684   17.1518 C   0  0  0  0  0  0  0  0  0  0  0  0
    3.4288  -24.1828   18.3136 C   0  0  0  0  0  0  0  0  0  0  0  0
    2.8497  -24.5597   19.6169 N   0  0  0  0  0  0  0  0  0  0  0  0
    3.8162  -24.4233   20.7047 C   0  0  0  0  0  0  0  0  0  0  0  0
    4.2374  -22.9942   20.9427 C   0  0  0  0  0  0  0  0  0  0  0  0
    5.4618  -22.5040   20.4721 C   0  0  0  0  0  0  0  0  0  0  0  0
    5.8695  -21.2157   20.7971 C   0  0  0  0  0  0  0  0  0  0  0  0
    7.1365  -20.8782   20.4519 O   0  0  0  0  0  0  0  0  0  0  0  0
    5.0462  -20.3715   21.5215 C   0  0  0  0  0  0  0  0  0  0  0  0
    3.8280  -20.8498   21.9828 C   0  0  0  0  0  0  0  0  0  0  0  0
    3.0478  -20.0576   22.7300 F   0  0  0  0  0  0  0  0  0  0  0  0
    3.4111  -22.1438   21.6916 C   0  0  0  0  0  0  0  0  0  0  0  0
    2.0454  -25.8226   19.5623 C   0  0  0  0  0  0  0  0  0  0  0  0
    2.2641  -26.7787   20.7625 C   0  0  0  0  0  0  0  0  0  0  0  0
    0.5712  -25.3550   19.6527 C   0  0  0  0  0  0  0  0  0  0  0  0
  2  1  1  6
  2  3  1  0
  3  4  1  0
  4  5  1  0
  5  6  1  0
  6  7  1  0
  7  8  1  0
  8  9  2  0
  9 10  1  0
 10 11  1  0
 10 12  2  0
 12 13  1  0
 13 14  1  0
 13 15  2  0
  6 16  1  0
 16 17  1  0
 16 18  1  0
 16  2  1  0
 15  8  1  0
M  END
>  <inspiration_score>  (71) 
0.884

>  <HIPPO Pose ID>  (71) 
178835

>  <ref_pdb>  (71) 
x0675b

>  <ref_mols>  (71) 
x0675a

>  <HIPPO Compound ID>  (71) 
694209

>  <energy_score>  (71) 
-59.658477

>  <tags>  (71) 
CpKRS_FrAncestor_bulkdock_iter1,CpKRS_FrAncestor_bulkdock_iter1_cluster_best5,fragmenstein_placed,CpKRS_FrAncestor_bulkdock_iter1_exported,BulkDock Fragalysis export

>  <inchikey>  (71) 
PBPLQAGXIWWNBN-UHFFFAOYSA-N

>  <placement_batch>  (71) 
CpKRS_FrAncestor_bulkdock_iter1_cluster_best5

>  <alias>  (71) 
C694209-P59

>  <name>  (71) 
C694209-P59

>  <smiles>  (71) 
C[C@H]1OCCN(Cc2cc(O)cc(F)c2)C1(C)C

>  <subsites>  (71) 


>  <distance_score>  (71) 
0.54201

$$$$
C696708-P51
     RDKit          3D

 19 19  0  0  0  0  0  0  0  0999 V2000
   -3.7376  -17.6057   29.2989 C   0  0  0  0  0  0  0  0  0  0  0  0
   -2.5138  -17.0241   29.8960 C   0  0  0  0  0  0  0  0  0  0  0  0
   -1.4995  -16.5144   30.3672 C   0  0  0  0  0  0  0  0  0  0  0  0
   -0.1590  -15.9108   30.6565 C   0  0  0  0  0  0  0  0  0  0  0  0
    0.5496  -15.4190   29.4596 N   0  0  0  0  0  0  0  0  0  0  0  0
    1.9472  -15.7901   28.8909 C   0  0  0  0  0  0  0  0  0  0  0  0
    2.7164  -16.5974   29.2409 O   0  0  0  0  0  0  0  0  0  0  0  0
    2.3192  -15.0277   27.5964 C   0  0  0  0  0  0  0  0  0  0  0  0
    1.4262  -14.3167   26.7794 C   0  0  0  0  0  0  0  0  0  0  0  0
    1.8706  -13.6386   25.6144 C   0  0  0  0  0  0  0  0  0  0  0  0
    3.2083  -13.6974   25.2427 C   0  0  0  0  0  0  0  0  0  0  0  0
    3.7964  -12.9025   24.0876 C   0  0  0  0  0  0  0  0  0  0  0  0
    4.0112  -11.5929   24.4265 F   0  0  0  0  0  0  0  0  0  0  0  0
    5.0089  -13.3551   23.6493 F   0  0  0  0  0  0  0  0  0  0  0  0
    3.0055  -12.8391   22.9798 F   0  0  0  0  0  0  0  0  0  0  0  0
    4.0662  -14.4043   25.9922 N   0  0  0  0  0  0  0  0  0  0  0  0
    3.6359  -15.0365   27.1197 C   0  0  0  0  0  0  0  0  0  0  0  0
    4.6365  -15.6227   27.8480 O   0  0  0  0  0  0  0  0  0  0  0  0
    5.8685  -15.6001   27.1472 C   0  0  0  0  0  0  0  0  0  0  0  0
  1  2  1  0
  2  3  3  0
  3  4  1  0
  4  5  1  0
  5  6  1  0
  6  7  2  0
  6  8  1  0
  8  9  2  0
  9 10  1  0
 10 11  2  0
 11 12  1  0
 12 13  1  0
 12 14  1  0
 12 15  1  0
 11 16  1  0
 16 17  2  0
 17 18  1  0
 18 19  1  0
 17  8  1  0
M  END
>  <inspiration_score>  (72) 
0.603

>  <HIPPO Pose ID>  (72) 
184093

>  <ref_pdb>  (72) 
x0675b

>  <ref_mols>  (72) 
x0634b

>  <HIPPO Compound ID>  (72) 
696708

>  <energy_score>  (72) 
-193.18505

>  <tags>  (72) 
CpKRS_FrAncestor_bulkdock_iter1,CpKRS_FrAncestor_bulkdock_iter1_cluster_best5,fragmenstein_placed,CpKRS_FrAncestor_bulkdock_iter1_exported,BulkDock Fragalysis export

>  <inchikey>  (72) 
NNVFRHHACHAOCR-UHFFFAOYSA-N

>  <placement_batch>  (72) 
CpKRS_FrAncestor_bulkdock_iter1_cluster_best5

>  <alias>  (72) 
C696708-P51

>  <name>  (72) 
C696708-P51

>  <smiles>  (72) 
CC#CCNC(=O)c1ccc(C(F)(F)F)nc1OC

>  <subsites>  (72) 


>  <distance_score>  (72) 
0.942374

$$$$
SJAUMKJBJCQCBW-UHFFFAOYSA-N-P50
     RDKit          3D

 19 19  0  0  0  0  0  0  0  0999 V2000
   -0.8607  -12.9546   26.5868 C   0  0  0  0  0  0  0  0  0  0  0  0
   -0.1796  -13.7876   27.5362 O   0  0  0  0  0  0  0  0  0  0  0  0
    1.1003  -14.1281   27.1233 C   0  0  0  0  0  0  0  0  0  0  0  0
    1.4869  -13.6718   25.9028 N   0  0  0  0  0  0  0  0  0  0  0  0
    2.7189  -13.9965   25.4612 C   0  0  0  0  0  0  0  0  0  0  0  0
    3.6016  -14.7685   26.1814 C   0  0  0  0  0  0  0  0  0  0  0  0
    3.1848  -15.2410   27.4208 C   0  0  0  0  0  0  0  0  0  0  0  0
    1.9030  -14.9339   27.9300 C   0  0  0  0  0  0  0  0  0  0  0  0
    1.5098  -15.6362   29.2128 C   0  0  0  0  0  0  0  0  0  0  0  0
    2.3564  -16.2778   29.6965 O   0  0  0  0  0  0  0  0  0  0  0  0
    0.0289  -15.4699   29.6127 N   0  0  0  0  0  0  0  0  0  0  0  0
   -0.7120  -15.9925   30.7674 C   0  0  0  0  0  0  0  0  0  0  0  0
   -2.0547  -16.6200   30.3022 C   0  0  0  0  0  0  0  0  0  0  0  0
   -3.0553  -17.1002   29.7859 C   0  0  0  0  0  0  0  0  0  0  0  0
   -4.1599  -17.6630   28.9661 C   0  0  0  0  0  0  0  0  0  0  0  0
   -5.4730  -16.9234   28.9744 C   0  0  0  0  0  0  0  0  0  0  0  0
   -6.0908  -17.0236   30.1716 F   0  0  0  0  0  0  0  0  0  0  0  0
   -5.3252  -15.6117   28.6962 F   0  0  0  0  0  0  0  0  0  0  0  0
   -6.3204  -17.4379   28.0532 F   0  0  0  0  0  0  0  0  0  0  0  0
  1  2  1  0
  2  3  1  0
  3  4  2  0
  4  5  1  0
  5  6  2  0
  6  7  1  0
  7  8  2  0
  8  9  1  0
  9 10  2  0
  9 11  1  0
 11 12  1  0
 12 13  1  0
 13 14  3  0
 14 15  1  0
 15 16  1  0
 16 17  1  0
 16 18  1  0
 16 19  1  0
  8  3  1  0
M  END
>  <inspiration_score>  (73) 
0.535

>  <HIPPO Pose ID>  (73) 
192569

>  <ref_pdb>  (73) 
x0540a

>  <ref_mols>  (73) 
x0634a

>  <HIPPO Compound ID>  (73) 
700585

>  <energy_score>  (73) 
-144.971081

>  <tags>  (73) 
CpKRS_FrAncestor_bulkdock_iter1,CpKRS_FrAncestor_bulkdock_iter1_cluster_best5,fragmenstein_placed,CpKRS_FrAncestor_bulkdock_iter1_exported,BulkDock Fragalysis export

>  <inchikey>  (73) 
SJAUMKJBJCQCBW-UHFFFAOYSA-N

>  <placement_batch>  (73) 
CpKRS_FrAncestor_bulkdock_iter1_cluster_best5

>  <alias>  (73) 
SJAUMKJBJCQCBW-UHFFFAOYSA-N-P50

>  <name>  (73) 
SJAUMKJBJCQCBW-UHFFFAOYSA-N-P50

>  <smiles>  (73) 
COc1ncccc1C(=O)NCC#CCC(F)(F)F

>  <subsites>  (73) 


>  <distance_score>  (73) 
0.828437

$$$$
YCEVGFYHFGEKQV-UHFFFAOYSA-N-P22
     RDKit          3D

 19 19  0  0  0  0  0  0  0  0999 V2000
   27.8428    7.7821   22.1272 C   0  0  0  0  0  0  0  0  0  0  0  0
   27.8437    6.7568   22.7505 C   0  0  0  0  0  0  0  0  0  0  0  0
   27.8302    5.4454   23.5557 C   0  0  0  0  0  0  0  0  0  0  0  0
   27.8089    4.4175   24.1763 C   0  0  0  0  0  0  0  0  0  0  0  0
   27.8042    3.1197   24.8731 C   0  0  0  0  0  0  0  0  0  0  0  0
   29.2320    2.7382   25.2803 C   0  0  0  0  0  0  0  0  0  0  0  0
   27.2644    2.0688   23.8894 C   0  0  0  0  0  0  0  0  0  0  0  0
   26.9365    3.0743   26.0555 N   0  0  0  0  0  0  0  0  0  0  0  0
   26.7631    4.3020   27.1644 S   0  0  0  0  0  0  0  0  0  0  0  0
   26.0417    3.7462   28.2882 O   0  0  0  0  0  0  0  0  0  0  0  0
   28.0430    4.9500   27.3496 O   0  0  0  0  0  0  0  0  0  0  0  0
   25.6571    5.4345   26.3681 C   0  0  0  0  0  0  0  0  0  0  0  0
   24.4349    4.9631   25.8880 C   0  0  0  0  0  0  0  0  0  0  0  0
   23.5993    5.8259   25.1798 C   0  0  0  0  0  0  0  0  0  0  0  0
   23.9729    7.1586   24.9437 C   0  0  0  0  0  0  0  0  0  0  0  0
   23.0594    8.0426   24.1418 C   0  0  0  0  0  0  0  0  0  0  0  0
   25.2119    7.6093   25.4273 C   0  0  0  0  0  0  0  0  0  0  0  0
   25.7949    9.1983   25.0673 Cl  0  0  0  0  0  0  0  0  0  0  0  0
   26.0429    6.7606   26.1621 C   0  0  0  0  0  0  0  0  0  0  0  0
  1  2  3  0
  2  3  1  0
  3  4  3  0
  4  5  1  0
  5  6  1  0
  5  7  1  0
  5  8  1  0
  8  9  1  0
  9 10  2  0
  9 11  2  0
  9 12  1  0
 12 13  2  0
 13 14  1  0
 14 15  2  0
 15 16  1  0
 15 17  1  0
 17 18  1  0
 17 19  2  0
 19 12  1  0
M  END
>  <inspiration_score>  (74) 
0.33

>  <HIPPO Pose ID>  (74) 
193640

>  <ref_pdb>  (74) 
x0540a

>  <ref_mols>  (74) 
x0472b

>  <HIPPO Compound ID>  (74) 
700924

>  <energy_score>  (74) 
-295.172776

>  <tags>  (74) 
CpKRS_FrAncestor_bulkdock_iter1,CpKRS_FrAncestor_bulkdock_iter1_cluster_best5,fragmenstein_placed,CpKRS_FrAncestor_bulkdock_iter1_exported,BulkDock Fragalysis export

>  <inchikey>  (74) 
YCEVGFYHFGEKQV-UHFFFAOYSA-N

>  <placement_batch>  (74) 
CpKRS_FrAncestor_bulkdock_iter1_cluster_best5

>  <alias>  (74) 
YCEVGFYHFGEKQV-UHFFFAOYSA-N-P22

>  <name>  (74) 
YCEVGFYHFGEKQV-UHFFFAOYSA-N-P22

>  <smiles>  (74) 
C#CC#CC(C)(C)NS(=O)(=O)c1ccc(C)c(Cl)c1

>  <subsites>  (74) 


>  <distance_score>  (74) 
0.683981

$$$$
C704111-P60
     RDKit          3D

 19 20  0  0  0  0  0  0  0  0999 V2000
   -4.1599  -27.7079   27.0969 C   0  0  0  0  0  0  0  0  0  0  0  0
   -3.5158  -27.8892   25.8432 O   0  0  0  0  0  0  0  0  0  0  0  0
   -2.7343  -26.8648   25.3716 C   0  0  0  0  0  0  0  0  0  0  0  0
   -2.6203  -25.5976   25.9542 C   0  0  0  0  0  0  0  0  0  0  0  0
   -3.2959  -25.2677   27.0664 F   0  0  0  0  0  0  0  0  0  0  0  0
   -1.8236  -24.6141   25.3794 C   0  0  0  0  0  0  0  0  0  0  0  0
   -1.1034  -24.8859   24.2214 C   0  0  0  0  0  0  0  0  0  0  0  0
   -1.1839  -26.1457   23.6364 C   0  0  0  0  0  0  0  0  0  0  0  0
   -2.0166  -27.1367   24.1855 C   0  0  0  0  0  0  0  0  0  0  0  0
   -2.1757  -28.4462   23.4404 C   0  0  0  0  0  0  0  0  0  0  0  0
   -1.0079  -29.3387   23.4675 N   0  0  0  0  0  0  0  0  0  0  0  0
   -1.2042  -30.4375   22.4990 C   0  0  0  0  0  0  0  0  0  0  0  0
   -0.5069  -31.7510   22.8642 C   0  0  0  0  0  0  0  0  0  0  0  0
   -0.9024  -32.2768   24.1303 O   0  0  0  0  0  0  0  0  0  0  0  0
   -1.1929  -31.2922   25.1395 C   0  0  0  0  0  0  0  0  0  0  0  0
   -2.7223  -31.2991   25.3208 C   0  0  0  0  0  0  0  0  0  0  0  0
   -0.5899  -31.8456   26.4419 C   0  0  0  0  0  0  0  0  0  0  0  0
   -0.6504  -29.8496   24.8110 C   0  0  1  0  0  0  0  0  0  0  0  0
    0.8833  -29.7084   24.8912 C   0  0  0  0  0  0  0  0  0  0  0  0
  1  2  1  0
  2  3  1  0
  3  4  2  0
  4  5  1  0
  4  6  1  0
  6  7  2  0
  7  8  1  0
  8  9  2  0
  9 10  1  0
 10 11  1  0
 11 12  1  0
 12 13  1  0
 13 14  1  0
 14 15  1  0
 15 16  1  0
 15 17  1  0
 15 18  1  0
 18 19  1  6
  9  3  1  0
 18 11  1  0
M  END
>  <inspiration_score>  (75) 
0.8

>  <HIPPO Pose ID>  (75) 
196395

>  <ref_pdb>  (75) 
x0675a

>  <ref_mols>  (75) 
x0675b

>  <HIPPO Compound ID>  (75) 
704111

>  <energy_score>  (75) 
-97.689432

>  <tags>  (75) 
CpKRS_FrAncestor_bulkdock_iter1,CpKRS_FrAncestor_bulkdock_iter1_cluster_best5,fragmenstein_placed,CpKRS_FrAncestor_bulkdock_iter1_exported,BulkDock Fragalysis export

>  <inchikey>  (75) 
ILFCPBWAHOXSSU-UHFFFAOYSA-N

>  <placement_batch>  (75) 
CpKRS_FrAncestor_bulkdock_iter1_cluster_best5

>  <alias>  (75) 
C704111-P60

>  <name>  (75) 
C704111-P60

>  <smiles>  (75) 
COc1c(F)cccc1CN1CCOC(C)(C)[C@H]1C

>  <subsites>  (75) 


>  <distance_score>  (75) 
0.625501

$$$$
C705721-P60
     RDKit          3D

 19 20  0  0  0  0  0  0  0  0999 V2000
   -4.1629  -26.6048   27.6989 C   0  0  0  0  0  0  0  0  0  0  0  0
   -3.4498  -25.5050   27.1505 O   0  0  0  0  0  0  0  0  0  0  0  0
   -2.7649  -25.7180   25.9829 C   0  0  0  0  0  0  0  0  0  0  0  0
   -2.6639  -26.9402   25.3096 C   0  0  0  0  0  0  0  0  0  0  0  0
   -1.9196  -27.0497   24.1175 C   0  0  0  0  0  0  0  0  0  0  0  0
   -1.8569  -28.3664   23.3603 C   0  0  0  0  0  0  0  0  0  0  0  0
   -0.5848  -29.0868   23.5154 N   0  0  0  0  0  0  0  0  0  0  0  0
   -0.3607  -29.4899   24.9180 C   0  0  0  0  0  0  0  0  0  0  0  0
   -1.2955  -30.6191   25.3958 C   0  0  0  0  0  0  0  0  0  0  0  0
   -1.5757  -31.5965   24.3840 O   0  0  0  0  0  0  0  0  0  0  0  0
   -0.5226  -31.6440   23.4151 C   0  0  0  0  0  0  0  0  0  0  0  0
   -0.4245  -30.2925   22.6276 C   0  0  0  0  0  0  0  0  0  0  0  0
   -1.4088  -30.3701   21.4360 C   0  0  0  0  0  0  0  0  0  0  0  0
    0.9950  -30.1949   22.0264 C   0  0  0  0  0  0  0  0  0  0  0  0
   -1.2599  -25.9175   23.6189 C   0  0  0  0  0  0  0  0  0  0  0  0
   -1.3933  -24.6953   24.2695 C   0  0  0  0  0  0  0  0  0  0  0  0
   -0.8341  -23.6061   23.7254 F   0  0  0  0  0  0  0  0  0  0  0  0
   -2.1389  -24.5943   25.4390 C   0  0  0  0  0  0  0  0  0  0  0  0
   -2.3020  -23.4024   26.0345 F   0  0  0  0  0  0  0  0  0  0  0  0
  1  2  1  0
  2  3  1  0
  3  4  2  0
  4  5  1  0
  5  6  1  0
  6  7  1  0
  7  8  1  0
  8  9  1  0
  9 10  1  0
 10 11  1  0
 11 12  1  0
 12 13  1  0
 12 14  1  0
  5 15  2  0
 15 16  1  0
 16 17  1  0
 16 18  2  0
 18 19  1  0
 18  3  1  0
 12  7  1  0
M  END
>  <inspiration_score>  (76) 
0.785

>  <HIPPO Pose ID>  (76) 
201448

>  <ref_pdb>  (76) 
x0675a

>  <ref_mols>  (76) 
x0675b

>  <HIPPO Compound ID>  (76) 
705721

>  <energy_score>  (76) 
-92.432583

>  <tags>  (76) 
CpKRS_FrAncestor_bulkdock_iter1,CpKRS_FrAncestor_bulkdock_iter1_cluster_best5,fragmenstein_placed,CpKRS_FrAncestor_bulkdock_iter1_exported,BulkDock Fragalysis export

>  <inchikey>  (76) 
LRSCTSZYIKFZDX-UHFFFAOYSA-N

>  <placement_batch>  (76) 
CpKRS_FrAncestor_bulkdock_iter1_cluster_best5

>  <alias>  (76) 
C705721-P60

>  <name>  (76) 
C705721-P60

>  <smiles>  (76) 
COc1cc(CN2CCOCC2(C)C)cc(F)c1F

>  <subsites>  (76) 


>  <distance_score>  (76) 
0.429824

$$$$
C707585-P37
     RDKit          3D

 14 14  0  0  0  0  0  0  0  0999 V2000
    6.8067  -12.4342   26.5162 C   0  0  0  0  0  0  0  0  0  0  0  0
    5.7196  -13.1597   26.2314 C   0  0  0  0  0  0  0  0  0  0  0  0
    4.3904  -12.7252   25.6585 C   0  0  1  0  0  0  0  0  0  0  0  0
    3.2123  -13.0390   26.6184 C   0  0  0  0  0  0  0  0  0  0  0  0
    3.1466  -12.1278   27.7288 O   0  0  0  0  0  0  0  0  0  0  0  0
    2.9495  -10.8007   27.2455 C   0  0  0  0  0  0  0  0  0  0  0  0
    4.1427  -10.3714   26.4116 C   0  0  0  0  0  0  0  0  0  0  0  0
    4.3994  -11.2693   25.2440 N   0  0  0  0  0  0  0  0  0  0  0  0
    3.5089  -11.0811   23.8164 S   0  0  0  0  0  0  0  0  0  0  0  0
    4.3312  -11.5543   22.7308 O   0  0  0  0  0  0  0  0  0  0  0  0
    2.1864  -11.6197   24.0229 O   0  0  0  0  0  0  0  0  0  0  0  0
    3.3566   -9.4235   23.6486 N   0  0  0  0  0  0  0  0  0  0  0  0
    2.2076   -8.8109   24.3162 C   0  0  0  0  0  0  0  0  0  0  0  0
    4.5809   -8.6401   23.4237 C   0  0  0  0  0  0  0  0  0  0  0  0
  1  2  2  0
  3  2  1  1
  3  4  1  0
  4  5  1  0
  5  6  1  0
  6  7  1  0
  7  8  1  0
  8  9  1  0
  9 10  2  0
  9 11  2  0
  9 12  1  0
 12 13  1  0
 12 14  1  0
  8  3  1  0
M  END
>  <inspiration_score>  (77) 
0.611

>  <HIPPO Pose ID>  (77) 
206513

>  <ref_pdb>  (77) 
x0504c

>  <ref_mols>  (77) 
x0540b

>  <HIPPO Compound ID>  (77) 
707585

>  <energy_score>  (77) 
-59.379117

>  <tags>  (77) 
CpKRS_FrAncestor_bulkdock_iter1,CpKRS_FrAncestor_bulkdock_iter1_cluster_best5,fragmenstein_placed,CpKRS_FrAncestor_bulkdock_iter1_exported,BulkDock Fragalysis export

>  <inchikey>  (77) 
SJZRNLZXGVWJFL-UHFFFAOYSA-N

>  <placement_batch>  (77) 
CpKRS_FrAncestor_bulkdock_iter1_cluster_best5

>  <alias>  (77) 
C707585-P37

>  <name>  (77) 
C707585-P37

>  <smiles>  (77) 
C=C[C@H]1COCCN1S(=O)(=O)N(C)C

>  <subsites>  (77) 


>  <distance_score>  (77) 
0.885346

$$$$
C709874-P36
     RDKit          3D

 14 14  0  0  0  0  0  0  0  0999 V2000
    4.9042   -8.0000   26.6168 C   0  0  0  0  0  0  0  0  0  0  0  0
    5.3491   -9.4404   26.3850 C   0  0  0  0  0  0  0  0  0  0  0  0
    4.1811  -10.3729   26.0134 C   0  0  2  0  0  0  0  0  0  0  0  0
    3.7989  -11.2392   27.2410 C   0  0  0  0  0  0  0  0  0  0  0  0
    2.6427  -12.0413   26.9811 O   0  0  0  0  0  0  0  0  0  0  0  0
    2.6961  -12.7370   25.7191 C   0  0  0  0  0  0  0  0  0  0  0  0
    1.5359  -12.1894   24.8765 C   0  0  0  0  0  0  0  0  0  0  0  0
    2.4233  -14.2182   25.9947 C   0  0  0  0  0  0  0  0  0  0  0  0
    4.0765  -12.6014   25.0043 C   0  0  0  0  0  0  0  0  0  0  0  0
    4.5846  -11.2169   24.8666 N   0  0  0  0  0  0  0  0  0  0  0  0
    4.2831  -10.6734   23.5193 C   0  0  0  0  0  0  0  0  0  0  0  0
    4.3915   -9.1618   23.2627 C   0  0  0  0  0  0  0  0  0  0  0  0
    3.1559   -8.5818   23.3366 F   0  0  0  0  0  0  0  0  0  0  0  0
    4.8283   -8.9354   22.0000 F   0  0  0  0  0  0  0  0  0  0  0  0
  1  2  1  0
  3  2  1  1
  3  4  1  0
  4  5  1  0
  5  6  1  0
  6  7  1  0
  6  8  1  0
  6  9  1  0
  9 10  1  0
 10 11  1  0
 11 12  1  0
 12 13  1  0
 12 14  1  0
 10  3  1  0
M  END
>  <inspiration_score>  (78) 
0.451

>  <HIPPO Pose ID>  (78) 
211398

>  <ref_pdb>  (78) 
x0504c

>  <ref_mols>  (78) 
x0540a

>  <HIPPO Compound ID>  (78) 
709874

>  <energy_score>  (78) 
-46.065031

>  <tags>  (78) 
CpKRS_FrAncestor_bulkdock_iter1,CpKRS_FrAncestor_bulkdock_iter1_cluster_best5,fragmenstein_placed,CpKRS_FrAncestor_bulkdock_iter1_exported,BulkDock Fragalysis export

>  <inchikey>  (78) 
OJMUBALYDQNFAJ-UHFFFAOYSA-N

>  <placement_batch>  (78) 
CpKRS_FrAncestor_bulkdock_iter1_cluster_best5

>  <alias>  (78) 
C709874-P36

>  <name>  (78) 
C709874-P36

>  <smiles>  (78) 
CC[C@@H]1COC(C)(C)CN1CC(F)F

>  <subsites>  (78) 


>  <distance_score>  (78) 
0.958344

$$$$
OTUBYEUWTZNEAQ-MRVPVSSYSA-N-P36
     RDKit          3D

 14 14  0  0  0  0  0  0  0  0999 V2000
    5.0128  -13.3163   23.3904 C   0  0  0  0  0  0  0  0  0  0  0  0
    4.6075  -13.5518   24.8605 C   0  0  0  0  0  0  0  0  0  0  0  0
    5.8745  -13.4943   25.7315 C   0  0  0  0  0  0  0  0  0  0  0  0
    4.0060  -14.9636   24.9884 C   0  0  0  0  0  0  0  0  0  0  0  0
    3.5514  -12.4689   25.2652 C   0  0  1  0  0  0  0  0  0  0  0  0
    2.8329  -12.7919   26.6017 C   0  0  0  0  0  0  0  0  0  0  0  0
    2.6674  -11.6541   27.4321 O   0  0  0  0  0  0  0  0  0  0  0  0
    3.9414  -11.0507   27.6218 C   0  0  0  0  0  0  0  0  0  0  0  0
    4.3419  -10.3376   26.3414 C   0  0  0  0  0  0  0  0  0  0  0  0
    4.1541  -11.1131   25.1077 N   0  0  0  0  0  0  0  0  0  0  0  0
    3.4278  -10.3613   24.0663 C   0  0  0  0  0  0  0  0  0  0  0  0
    3.9874   -9.0046   23.6441 C   0  0  0  0  0  0  0  0  0  0  0  0
    3.0434   -8.4123   22.8490 F   0  0  0  0  0  0  0  0  0  0  0  0
    5.1068   -9.1300   22.8968 F   0  0  0  0  0  0  0  0  0  0  0  0
  1  2  1  0
  2  3  1  0
  2  4  1  0
  5  2  1  1
  5  6  1  0
  6  7  1  0
  7  8  1  0
  8  9  1  0
  9 10  1  0
 10 11  1  0
 11 12  1  0
 12 13  1  0
 12 14  1  0
 10  5  1  0
M  END
>  <inspiration_score>  (79) 
0.509

>  <HIPPO Pose ID>  (79) 
211683

>  <ref_pdb>  (79) 
x0414b

>  <ref_mols>  (79) 
x0540a

>  <HIPPO Compound ID>  (79) 
709935

>  <energy_score>  (79) 
-70.383991

>  <tags>  (79) 
CpKRS_FrAncestor_bulkdock_iter1,CpKRS_FrAncestor_bulkdock_iter1_cluster_best5,fragmenstein_placed,CpKRS_FrAncestor_bulkdock_iter1_exported,BulkDock Fragalysis export

>  <inchikey>  (79) 
OTUBYEUWTZNEAQ-UHFFFAOYSA-N

>  <placement_batch>  (79) 
CpKRS_FrAncestor_bulkdock_iter1_cluster_best5

>  <alias>  (79) 
OTUBYEUWTZNEAQ-MRVPVSSYSA-N-P36

>  <name>  (79) 
OTUBYEUWTZNEAQ-MRVPVSSYSA-N-P36

>  <smiles>  (79) 
CC(C)(C)[C@H]1COCCN1CC(F)F

>  <subsites>  (79) 


>  <distance_score>  (79) 
0.479221

$$$$
LEOOLACLBYEDND-UHFFFAOYSA-N-P59
     RDKit          3D

 19 20  0  0  0  0  0  0  0  0999 V2000
   -0.4938  -25.4189   19.2554 C   0  0  0  0  0  0  0  0  0  0  0  0
    0.6845  -25.6415   19.3415 C   0  0  0  0  0  0  0  0  0  0  0  0
    2.1505  -25.8964   19.4681 C   0  0  0  0  0  0  0  0  0  0  0  0
    2.3395  -26.7538   20.6685 C   0  0  0  0  0  0  0  0  0  0  0  0
    2.4664  -27.4408   21.6468 C   0  0  0  0  0  0  0  0  0  0  0  0
    2.6465  -26.6964   18.2228 C   0  0  0  0  0  0  0  0  0  0  0  0
    2.5562  -26.0342   16.9446 O   0  0  0  0  0  0  0  0  0  0  0  0
    2.4606  -24.6087   17.0561 C   0  0  0  0  0  0  0  0  0  0  0  0
    3.2750  -24.0738   18.2349 C   0  0  0  0  0  0  0  0  0  0  0  0
    2.8193  -24.5729   19.5520 N   0  0  0  0  0  0  0  0  0  0  0  0
    3.8774  -24.4298   20.5543 C   0  0  0  0  0  0  0  0  0  0  0  0
    4.2395  -22.9856   20.8431 C   0  0  0  0  0  0  0  0  0  0  0  0
    5.4530  -22.4613   20.3610 C   0  0  0  0  0  0  0  0  0  0  0  0
    5.8409  -21.1700   20.6885 C   0  0  0  0  0  0  0  0  0  0  0  0
    5.0233  -20.4014   21.5058 C   0  0  0  0  0  0  0  0  0  0  0  0
    3.8059  -20.8948   22.0041 C   0  0  0  0  0  0  0  0  0  0  0  0
    3.0213  -19.9960   22.9188 C   0  0  0  0  0  0  0  0  0  0  0  0
    3.3892  -22.1894   21.6478 C   0  0  0  0  0  0  0  0  0  0  0  0
    2.0811  -22.6082   21.8973 N   0  0  0  0  0  0  0  0  0  0  0  0
  1  2  3  0
  2  3  1  0
  3  4  1  0
  4  5  3  0
  3  6  1  0
  6  7  1  0
  7  8  1  0
  8  9  1  0
  9 10  1  0
 10 11  1  0
 11 12  1  0
 12 13  2  0
 13 14  1  0
 14 15  2  0
 15 16  1  0
 16 17  1  0
 16 18  2  0
 18 19  1  0
 10  3  1  0
 18 12  1  0
M  END
>  <inspiration_score>  (80) 
0.784

>  <HIPPO Pose ID>  (80) 
214135

>  <ref_pdb>  (80) 
x0540b

>  <ref_mols>  (80) 
x0675a

>  <HIPPO Compound ID>  (80) 
292049

>  <energy_score>  (80) 
-57.786774

>  <tags>  (80) 
CpKRS_FrAncestor_bulkdock_iter1,CpKRS_FrAncestor_bulkdock_iter1_cluster_best5,fragmenstein_placed,CpKRS_FrAncestor_bulkdock_iter1_exported,BulkDock Fragalysis export

>  <inchikey>  (80) 
LEOOLACLBYEDND-UHFFFAOYSA-N

>  <placement_batch>  (80) 
CpKRS_FrAncestor_bulkdock_iter1_cluster_best5

>  <alias>  (80) 
LEOOLACLBYEDND-UHFFFAOYSA-N-P59

>  <name>  (80) 
LEOOLACLBYEDND-UHFFFAOYSA-N-P59

>  <smiles>  (80) 
C#CC1(C#C)COCCN1Cc1cccc(C)c1N

>  <subsites>  (80) 


>  <distance_score>  (80) 
0.498033

$$$$
VPOBFYIRLQXVAV-CYBMUJFWSA-N-P38
     RDKit          3D

 19 19  0  0  0  0  0  0  0  0999 V2000
    5.9706  -12.7349   21.9058 C   0  0  0  0  0  0  0  0  0  0  0  0
    5.1345  -11.9159   22.1523 C   0  0  0  0  0  0  0  0  0  0  0  0
    4.0569  -11.1116   22.7009 C   0  0  1  0  0  0  0  0  0  0  0  0
    3.4865  -11.9062   23.7609 N   0  0  0  0  0  0  0  0  0  0  0  0
    4.1500  -12.8977   24.7370 C   0  0  0  0  0  0  0  0  0  0  0  0
    5.2731  -13.1708   24.8891 O   0  0  0  0  0  0  0  0  0  0  0  0
    3.1809  -13.5742   25.6664 C   0  0  0  0  0  0  0  0  0  0  0  0
    1.8615  -13.1580   25.8833 C   0  0  0  0  0  0  0  0  0  0  0  0
    1.1073  -13.7318   26.9112 C   0  0  0  0  0  0  0  0  0  0  0  0
    1.6828  -14.6775   27.7648 C   0  0  0  0  0  0  0  0  0  0  0  0
    0.9976  -15.1225   28.9383 C   0  0  0  0  0  0  0  0  0  0  0  0
    0.4560  -15.5009   29.8916 N   0  0  0  0  0  0  0  0  0  0  0  0
    2.9688  -15.1373   27.5103 C   0  0  0  0  0  0  0  0  0  0  0  0
    3.7018  -16.2847   28.5544 Cl  0  0  0  0  0  0  0  0  0  0  0  0
    3.7053  -14.6107   26.4576 C   0  0  0  0  0  0  0  0  0  0  0  0
    4.4801   -9.6701   23.0802 C   0  0  0  0  0  0  0  0  0  0  0  0
    5.0375   -8.9366   21.8401 C   0  0  0  0  0  0  0  0  0  0  0  0
    3.2426   -8.9241   23.6032 C   0  0  0  0  0  0  0  0  0  0  0  0
    5.5479   -9.5925   24.1745 C   0  0  0  0  0  0  0  0  0  0  0  0
  1  2  3  0
  3  2  1  1
  3  4  1  0
  4  5  1  0
  5  6  2  0
  5  7  1  0
  7  8  2  0
  8  9  1  0
  9 10  2  0
 10 11  1  0
 11 12  3  0
 10 13  1  0
 13 14  1  0
 13 15  2  0
  3 16  1  0
 16 17  1  0
 16 18  1  0
 16 19  1  0
 15  7  1  0
M  END
>  <inspiration_score>  (81) 
0.741

>  <HIPPO Pose ID>  (81) 
215037

>  <ref_pdb>  (81) 
x0540b

>  <ref_mols>  (81) 
x0555a

>  <HIPPO Compound ID>  (81) 
292506

>  <energy_score>  (81) 
-455.294464

>  <tags>  (81) 
CpKRS_FrAncestor_bulkdock_iter1,CpKRS_FrAncestor_bulkdock_iter1_cluster_best5,fragmenstein_placed,CpKRS_FrAncestor_bulkdock_iter1_exported,BulkDock Fragalysis export

>  <inchikey>  (81) 
VPOBFYIRLQXVAV-UHFFFAOYSA-N

>  <placement_batch>  (81) 
CpKRS_FrAncestor_bulkdock_iter1_cluster_best5

>  <alias>  (81) 
VPOBFYIRLQXVAV-CYBMUJFWSA-N-P38

>  <name>  (81) 
VPOBFYIRLQXVAV-CYBMUJFWSA-N-P38

>  <smiles>  (81) 
C#C[C@@H](NC(=O)c1ccc(C#N)c(Cl)c1)C(C)(C)C

>  <subsites>  (81) 


>  <distance_score>  (81) 
0.562093

$$$$
C296453-P40
     RDKit          3D

 20 20  0  0  0  0  0  0  0  0999 V2000
   -0.6184  -19.5308   23.5028 C   0  0  0  0  0  0  0  0  0  0  0  0
    0.1809  -18.8045   24.4925 C   0  0  0  0  0  0  0  0  0  0  0  0
    0.9386  -18.1540   25.1628 C   0  0  0  0  0  0  0  0  0  0  0  0
    2.1168  -17.2857   25.6402 C   0  0  0  0  0  0  0  0  0  0  0  0
    3.1227  -16.6497   25.7905 C   0  0  0  0  0  0  0  0  0  0  0  0
    4.3504  -15.8881   25.8367 C   0  0  0  0  0  0  0  0  0  0  0  0
    5.3648  -16.4471   25.7482 O   0  0  0  0  0  0  0  0  0  0  0  0
    4.0456  -14.3927   25.9042 N   0  0  0  0  0  0  0  0  0  0  0  0
    4.9273  -13.2644   25.9724 C   0  0  0  0  0  0  0  0  0  0  0  0
    4.8364  -12.4211   24.7319 C   0  0  0  0  0  0  0  0  0  0  0  0
    4.5276  -12.9745   23.4847 C   0  0  0  0  0  0  0  0  0  0  0  0
    4.4863  -12.1518   22.3763 C   0  0  0  0  0  0  0  0  0  0  0  0
    4.7349  -10.8283   22.4200 N   0  0  0  0  0  0  0  0  0  0  0  0
    5.0833  -10.2916   23.6266 C   0  0  0  0  0  0  0  0  0  0  0  0
    5.2916   -8.8011   23.7142 C   0  0  0  0  0  0  0  0  0  0  0  0
    5.7624   -8.2396   22.5633 F   0  0  0  0  0  0  0  0  0  0  0  0
    4.0990   -8.1648   23.9539 F   0  0  0  0  0  0  0  0  0  0  0  0
    6.1305   -8.3931   24.7028 F   0  0  0  0  0  0  0  0  0  0  0  0
    5.1233  -11.0558   24.7875 C   0  0  0  0  0  0  0  0  0  0  0  0
    5.4010  -10.4882   25.9694 F   0  0  0  0  0  0  0  0  0  0  0  0
  1  2  1  0
  2  3  3  0
  3  4  1  0
  4  5  3  0
  5  6  1  0
  6  7  2  0
  6  8  1  0
  8  9  1  0
  9 10  1  0
 10 11  2  0
 11 12  1  0
 12 13  2  0
 13 14  1  0
 14 15  1  0
 15 16  1  0
 15 17  1  0
 15 18  1  0
 14 19  2  0
 19 20  1  0
 19 10  1  0
M  END
>  <inspiration_score>  (82) 
0.73

>  <HIPPO Pose ID>  (82) 
224657

>  <ref_pdb>  (82) 
x0485c

>  <ref_mols>  (82) 
x0602b

>  <HIPPO Compound ID>  (82) 
296453

>  <energy_score>  (82) 
-1587.401057

>  <tags>  (82) 
CpKRS_FrAncestor_bulkdock_iter1,CpKRS_FrAncestor_bulkdock_iter1_cluster_best5,fragmenstein_placed,CpKRS_FrAncestor_bulkdock_iter1_exported,BulkDock Fragalysis export

>  <inchikey>  (82) 
KIBKSTNMHGLNFC-UHFFFAOYSA-N

>  <placement_batch>  (82) 
CpKRS_FrAncestor_bulkdock_iter1_cluster_best5

>  <alias>  (82) 
C296453-P40

>  <name>  (82) 
C296453-P40

>  <smiles>  (82) 
CC#CC#CC(=O)NCc1ccnc(C(F)(F)F)c1F

>  <subsites>  (82) 


>  <distance_score>  (82) 
0.685682

$$$$
WWZXOHBEEDVUOQ-JTQLQIEISA-N-P56
     RDKit          3D

 20 21  0  0  0  0  0  0  0  0999 V2000
    4.7024   -7.7340   26.2691 C   0  0  0  0  0  0  0  0  0  0  0  0
    3.8497   -8.5946   25.5230 O   0  0  0  0  0  0  0  0  0  0  0  0
    4.3682   -9.0443   24.3428 C   0  0  0  0  0  0  0  0  0  0  0  0
    4.0527  -10.3673   24.0107 C   0  0  0  0  0  0  0  0  0  0  0  0
    4.4821  -10.9295   22.8004 C   0  0  0  0  0  0  0  0  0  0  0  0
    4.2883  -12.3755   22.4196 C   0  0  0  0  0  0  0  0  0  0  0  0
    3.7390  -13.2189   23.4318 N   0  0  0  0  0  0  0  0  0  0  0  0
    4.2978  -13.6858   24.6771 C   0  0  0  0  0  0  0  0  0  0  0  0
    5.3135  -13.4239   25.2019 O   0  0  0  0  0  0  0  0  0  0  0  0
    3.2322  -14.5879   25.0863 N   0  0  0  0  0  0  0  0  0  0  0  0
    2.1879  -13.8220   25.9224 C   0  0  0  0  0  0  0  0  0  0  0  0
    1.0841  -14.4151   26.8279 C   0  0  0  0  0  0  0  0  0  0  0  0
    1.6826  -14.9180   28.0257 O   0  0  0  0  0  0  0  0  0  0  0  0
    3.0657  -15.1549   27.7366 C   0  0  1  0  0  0  0  0  0  0  0  0
    3.5804  -16.2192   28.6775 C   0  0  0  0  0  0  0  0  0  0  0  0
    3.1546  -15.5494   26.2492 C   0  0  0  0  0  0  0  0  0  0  0  0
    5.1435  -10.1001   21.8867 C   0  0  0  0  0  0  0  0  0  0  0  0
    5.4444   -8.7811   22.2040 C   0  0  0  0  0  0  0  0  0  0  0  0
    5.0951   -8.2702   23.4432 C   0  0  0  0  0  0  0  0  0  0  0  0
    5.4269   -7.0002   23.7106 F   0  0  0  0  0  0  0  0  0  0  0  0
  1  2  1  0
  2  3  1  0
  3  4  2  0
  4  5  1  0
  5  6  1  0
  6  7  1  0
  7  8  1  0
  8  9  2  0
  8 10  1  0
 10 11  1  0
 11 12  1  0
 12 13  1  0
 13 14  1  0
 14 15  1  1
 14 16  1  0
  5 17  2  0
 17 18  1  0
 18 19  2  0
 19 20  1  0
 19  3  1  0
 16 10  1  0
M  END
>  <inspiration_score>  (83) 
0.595

>  <HIPPO Pose ID>  (83) 
239123

>  <ref_pdb>  (83) 
x0419a

>  <ref_mols>  (83) 
x0654a

>  <HIPPO Compound ID>  (83) 
297672

>  <energy_score>  (83) 
-209.946614

>  <tags>  (83) 
CpKRS_FrAncestor_bulkdock_iter1,CpKRS_FrAncestor_bulkdock_iter1_cluster_best5,fragmenstein_placed,CpKRS_FrAncestor_bulkdock_iter1_exported,BulkDock Fragalysis export

>  <inchikey>  (83) 
WWZXOHBEEDVUOQ-UHFFFAOYSA-N

>  <placement_batch>  (83) 
CpKRS_FrAncestor_bulkdock_iter1_cluster_best5

>  <alias>  (83) 
WWZXOHBEEDVUOQ-JTQLQIEISA-N-P56

>  <name>  (83) 
WWZXOHBEEDVUOQ-JTQLQIEISA-N-P56

>  <smiles>  (83) 
COc1cc(CNC(=O)N2CCO[C@@H](C)C2)ccc1F

>  <subsites>  (83) 


>  <distance_score>  (83) 
0.849083

$$$$
COPAWJGKVZGHDY-UHFFFAOYSA-N-P54
     RDKit          3D

 15 15  0  0  0  0  0  0  0  0999 V2000
    7.6141  -38.5106    6.8013 C   0  0  0  0  0  0  0  0  0  0  0  0
    6.6234  -37.8920    7.7706 C   0  0  0  0  0  0  0  0  0  0  0  0
    7.2492  -36.7453    8.4241 N   0  0  0  0  0  0  0  0  0  0  0  0
    6.6382  -36.2027    9.8802 S   0  0  0  0  0  0  0  0  0  0  0  0
    5.2054  -36.4056    9.8741 O   0  0  0  0  0  0  0  0  0  0  0  0
    7.1947  -34.8915   10.1372 O   0  0  0  0  0  0  0  0  0  0  0  0
    7.3488  -37.3165   11.0463 C   0  0  0  0  0  0  0  0  0  0  0  0
    6.5370  -38.2126   11.7547 C   0  0  0  0  0  0  0  0  0  0  0  0
    7.1124  -39.0615   12.7096 C   0  0  0  0  0  0  0  0  0  0  0  0
    6.2683  -40.0027   13.5148 C   0  0  0  0  0  0  0  0  0  0  0  0
    8.4894  -38.9742   12.9466 C   0  0  0  0  0  0  0  0  0  0  0  0
    9.0687  -39.7937   13.8340 F   0  0  0  0  0  0  0  0  0  0  0  0
    9.2893  -38.0696   12.2574 C   0  0  0  0  0  0  0  0  0  0  0  0
    8.7124  -37.2378   11.3077 C   0  0  0  0  0  0  0  0  0  0  0  0
    9.4984  -36.3714   10.6526 F   0  0  0  0  0  0  0  0  0  0  0  0
  1  2  1  0
  2  3  1  0
  3  4  1  0
  4  5  2  0
  4  6  2  0
  4  7  1  0
  7  8  2  0
  8  9  1  0
  9 10  1  0
  9 11  2  0
 11 12  1  0
 11 13  1  0
 13 14  2  0
 14 15  1  0
 14  7  1  0
M  END
>  <inspiration_score>  (84) 
0.924

>  <HIPPO Pose ID>  (84) 
252462

>  <ref_pdb>  (84) 
x0639c

>  <ref_mols>  (84) 
x0639c

>  <HIPPO Compound ID>  (84) 
311491

>  <energy_score>  (84) 
-255.947458

>  <tags>  (84) 
CpKRS_FrAncestor_bulkdock_iter1,CpKRS_FrAncestor_bulkdock_iter1_cluster_best5,fragmenstein_placed,CpKRS_FrAncestor_bulkdock_iter1_exported,BulkDock Fragalysis export

>  <inchikey>  (84) 
COPAWJGKVZGHDY-UHFFFAOYSA-N

>  <placement_batch>  (84) 
CpKRS_FrAncestor_bulkdock_iter1_cluster_best5

>  <alias>  (84) 
COPAWJGKVZGHDY-UHFFFAOYSA-N-P54

>  <name>  (84) 
COPAWJGKVZGHDY-UHFFFAOYSA-N-P54

>  <smiles>  (84) 
CCNS(=O)(=O)c1cc(C)c(F)cc1F

>  <subsites>  (84) 


>  <distance_score>  (84) 
0.285533

$$$$
KFAXVIKNNCUXGD-SECBINFHSA-N-P37
     RDKit          3D

 15 15  0  0  0  0  0  0  0  0999 V2000
    5.4373   -9.3433   21.7543 C   0  0  0  0  0  0  0  0  0  0  0  0
    5.0242   -8.8661   23.1412 C   0  0  0  0  0  0  0  0  0  0  0  0
    6.2105   -8.8260   24.0929 C   0  0  0  0  0  0  0  0  0  0  0  0
    3.8584   -9.6137   23.7028 N   0  0  0  0  0  0  0  0  0  0  0  0
    2.5362   -9.1833   23.2687 C   0  0  0  0  0  0  0  0  0  0  0  0
    3.9189  -11.2490   24.0662 S   0  0  0  0  0  0  0  0  0  0  0  0
    2.5639  -11.6955   24.2867 O   0  0  0  0  0  0  0  0  0  0  0  0
    4.7479  -11.9026   23.0898 O   0  0  0  0  0  0  0  0  0  0  0  0
    4.6936  -11.2586   25.5634 N   0  0  0  0  0  0  0  0  0  0  0  0
    4.2701  -10.2057   26.5554 C   0  0  0  0  0  0  0  0  0  0  0  0
    2.9610  -10.5483   27.2582 C   0  0  0  0  0  0  0  0  0  0  0  0
    3.0607  -11.8143   27.9179 O   0  0  0  0  0  0  0  0  0  0  0  0
    3.3165  -12.8451   26.9503 C   0  0  0  0  0  0  0  0  0  0  0  0
    4.6803  -12.6037   26.2743 C   0  0  1  0  0  0  0  0  0  0  0  0
    5.0889  -13.7824   25.4024 C   0  0  0  0  0  0  0  0  0  0  0  0
  1  2  1  0
  2  3  1  0
  2  4  1  0
  4  5  1  0
  4  6  1  0
  6  7  2  0
  6  8  2  0
  6  9  1  0
  9 10  1  0
 10 11  1  0
 11 12  1  0
 12 13  1  0
 13 14  1  0
 14 15  1  6
 14  9  1  0
M  END
>  <inspiration_score>  (85) 
0.612

>  <HIPPO Pose ID>  (85) 
253044

>  <ref_pdb>  (85) 
x0639c

>  <ref_mols>  (85) 
x0540b

>  <HIPPO Compound ID>  (85) 
311458

>  <energy_score>  (85) 
-60.158018

>  <tags>  (85) 
CpKRS_FrAncestor_bulkdock_iter1,CpKRS_FrAncestor_bulkdock_iter1_cluster_best5,fragmenstein_placed,CpKRS_FrAncestor_bulkdock_iter1_exported,BulkDock Fragalysis export

>  <inchikey>  (85) 
KFAXVIKNNCUXGD-UHFFFAOYSA-N

>  <placement_batch>  (85) 
CpKRS_FrAncestor_bulkdock_iter1_cluster_best5

>  <alias>  (85) 
KFAXVIKNNCUXGD-SECBINFHSA-N-P37

>  <name>  (85) 
KFAXVIKNNCUXGD-SECBINFHSA-N-P37

>  <smiles>  (85) 
CC(C)N(C)S(=O)(=O)N1CCOC[C@H]1C

>  <subsites>  (85) 


>  <distance_score>  (85) 
0.593515

$$$$
CNPQQMUCYHYVAF-UHFFFAOYSA-N-P37
     RDKit          3D

 15 15  0  0  0  0  0  0  0  0999 V2000
    5.2397   -9.6430   20.9150 C   0  0  0  0  0  0  0  0  0  0  0  0
    5.1676   -9.1567   22.0044 C   0  0  0  0  0  0  0  0  0  0  0  0
    4.9199   -8.7524   23.3835 C   0  0  2  0  0  0  0  0  0  0  0  0
    6.1781   -8.8582   24.2274 C   0  0  0  0  0  0  0  0  0  0  0  0
    3.7414   -9.4807   23.9363 N   0  0  0  0  0  0  0  0  0  0  0  0
    2.4484   -9.1545   23.3269 C   0  0  0  0  0  0  0  0  0  0  0  0
    3.8513  -11.1265   24.2448 S   0  0  0  0  0  0  0  0  0  0  0  0
    4.6651  -11.7672   23.2467 O   0  0  0  0  0  0  0  0  0  0  0  0
    2.5109  -11.5984   24.4979 O   0  0  0  0  0  0  0  0  0  0  0  0
    4.6760  -11.1461   25.7086 N   0  0  0  0  0  0  0  0  0  0  0  0
    4.7115  -12.5311   26.2872 C   0  0  0  0  0  0  0  0  0  0  0  0
    3.3914  -12.8637   26.9967 C   0  0  0  0  0  0  0  0  0  0  0  0
    3.1250  -11.9045   28.0326 O   0  0  0  0  0  0  0  0  0  0  0  0
    2.9707  -10.6000   27.4653 C   0  0  0  0  0  0  0  0  0  0  0  0
    4.2509  -10.1739   26.7642 C   0  0  0  0  0  0  0  0  0  0  0  0
  1  2  3  0
  2  3  1  0
  3  4  1  1
  3  5  1  0
  5  6  1  0
  5  7  1  0
  7  8  2  0
  7  9  2  0
  7 10  1  0
 10 11  1  0
 11 12  1  0
 12 13  1  0
 13 14  1  0
 14 15  1  0
 15 10  1  0
M  END
>  <inspiration_score>  (86) 
0.637

>  <HIPPO Pose ID>  (86) 
254509

>  <ref_pdb>  (86) 
x0639c

>  <ref_mols>  (86) 
x0540b

>  <HIPPO Compound ID>  (86) 
312128

>  <energy_score>  (86) 
-67.363462

>  <tags>  (86) 
CpKRS_FrAncestor_bulkdock_iter1,CpKRS_FrAncestor_bulkdock_iter1_cluster_best5,fragmenstein_placed,CpKRS_FrAncestor_bulkdock_iter1_exported,BulkDock Fragalysis export

>  <inchikey>  (86) 
CNPQQMUCYHYVAF-UHFFFAOYSA-N

>  <placement_batch>  (86) 
CpKRS_FrAncestor_bulkdock_iter1_cluster_best5

>  <alias>  (86) 
CNPQQMUCYHYVAF-UHFFFAOYSA-N-P37

>  <name>  (86) 
CNPQQMUCYHYVAF-UHFFFAOYSA-N-P37

>  <smiles>  (86) 
C#CC(C)N(C)S(=O)(=O)N1CCOCC1

>  <subsites>  (86) 


>  <distance_score>  (86) 
0.595446

$$$$
PROIQAFSNFDGMA-UHFFFAOYSA-N-P50
     RDKit          3D

 15 15  0  0  0  0  0  0  0  0999 V2000
    2.0129  -12.0531   23.7468 C   0  0  0  0  0  0  0  0  0  0  0  0
    2.5831  -13.3481   23.8491 O   0  0  0  0  0  0  0  0  0  0  0  0
    2.3600  -13.9471   25.0679 C   0  0  0  0  0  0  0  0  0  0  0  0
    3.0171  -15.1388   25.2725 C   0  0  0  0  0  0  0  0  0  0  0  0
    2.8674  -15.7965   26.4991 C   0  0  0  0  0  0  0  0  0  0  0  0
    3.5918  -17.0724   26.6604 C   0  0  0  0  0  0  0  0  0  0  0  0
    2.0925  -15.2244   27.5041 C   0  0  0  0  0  0  0  0  0  0  0  0
    2.1145  -15.6181   28.9588 C   0  0  0  0  0  0  0  0  0  0  0  0
    3.1525  -15.8325   29.4465 O   0  0  0  0  0  0  0  0  0  0  0  0
    0.7025  -15.5671   29.5888 N   0  0  0  0  0  0  0  0  0  0  0  0
    0.2854  -15.6746   30.9705 C   0  0  0  0  0  0  0  0  0  0  0  0
   -0.2650  -16.7919   31.9025 C   0  0  0  0  0  0  0  0  0  0  0  0
   -0.8964  -14.8650   31.0951 C   0  0  0  0  0  0  0  0  0  0  0  0
    1.4781  -14.0131   27.1848 C   0  0  0  0  0  0  0  0  0  0  0  0
    1.5466  -13.3860   25.9815 N   0  0  0  0  0  0  0  0  0  0  0  0
  1  2  1  0
  2  3  1  0
  3  4  2  0
  4  5  1  0
  5  6  1  0
  5  7  2  0
  7  8  1  0
  8  9  2  0
  8 10  1  0
 10 11  1  0
 11 12  1  0
 11 13  1  0
  7 14  1  0
 14 15  2  0
 15  3  1  0
M  END
>  <inspiration_score>  (87) 
0.664

>  <HIPPO Pose ID>  (87) 
257188

>  <ref_pdb>  (87) 
x0639c

>  <ref_mols>  (87) 
x0634a

>  <HIPPO Compound ID>  (87) 
33208

>  <energy_score>  (87) 
-97.2123

>  <tags>  (87) 
CpKRS_FrAncestor_bulkdock_iter1,CpKRS_FrAncestor_bulkdock_iter1_cluster_best5,fragmenstein_placed,CpKRS_FrAncestor_bulkdock_iter1_exported,BulkDock Fragalysis export

>  <inchikey>  (87) 
PROIQAFSNFDGMA-UHFFFAOYSA-N

>  <placement_batch>  (87) 
CpKRS_FrAncestor_bulkdock_iter1_cluster_best5

>  <alias>  (87) 
PROIQAFSNFDGMA-UHFFFAOYSA-N-P50

>  <name>  (87) 
PROIQAFSNFDGMA-UHFFFAOYSA-N-P50

>  <smiles>  (87) 
COc1cc(C)c(C(=O)NC(C)C)cn1

>  <subsites>  (87) 


>  <distance_score>  (87) 
0.943387

$$$$
C322908-P7
     RDKit          3D

 15 15  0  0  0  0  0  0  0  0999 V2000
    5.7510  -14.7735   25.2461 C   0  0  0  0  0  0  0  0  0  0  0  0
    5.5832  -13.2972   25.5912 C   0  0  0  0  0  0  0  0  0  0  0  0
    4.2767  -12.6153   25.0846 C   0  0  1  0  0  0  0  0  0  0  0  0
    3.9924  -12.8969   23.5685 C   0  0  0  0  0  0  0  0  0  0  0  0
    5.1386  -12.7432   22.7373 O   0  0  0  0  0  0  0  0  0  0  0  0
    3.0736  -13.2573   25.8404 C   0  0  0  0  0  0  0  0  0  0  0  0
    3.2210  -13.0866   27.2495 O   0  0  0  0  0  0  0  0  0  0  0  0
    3.1137  -11.7007   27.5603 C   0  0  0  0  0  0  0  0  0  0  0  0
    4.1853  -10.8686   26.8436 C   0  0  0  0  0  0  0  0  0  0  0  0
    4.2613  -11.1285   25.3839 N   0  0  0  0  0  0  0  0  0  0  0  0
    5.3521  -10.3241   24.7588 C   0  0  0  0  0  0  0  0  0  0  0  0
    5.1452   -8.7933   24.6571 C   0  0  0  0  0  0  0  0  0  0  0  0
    4.0066   -8.4793   23.9875 F   0  0  0  0  0  0  0  0  0  0  0  0
    5.0887   -8.2088   25.8739 F   0  0  0  0  0  0  0  0  0  0  0  0
    6.1731   -8.2121   23.9893 F   0  0  0  0  0  0  0  0  0  0  0  0
  1  2  1  0
  3  2  1  1
  3  4  1  0
  4  5  1  0
  3  6  1  0
  6  7  1  0
  7  8  1  0
  8  9  1  0
  9 10  1  0
 10 11  1  0
 11 12  1  0
 12 13  1  0
 12 14  1  0
 12 15  1  0
 10  3  1  0
M  END
>  <inspiration_score>  (88) 
0.65

>  <HIPPO Pose ID>  (88) 
273422

>  <ref_pdb>  (88) 
x0654c

>  <ref_mols>  (88) 
x0414b

>  <HIPPO Compound ID>  (88) 
322908

>  <energy_score>  (88) 
-91.064669

>  <tags>  (88) 
CpKRS_FrAncestor_bulkdock_iter1,CpKRS_FrAncestor_bulkdock_iter1_cluster_best5,fragmenstein_placed,CpKRS_FrAncestor_bulkdock_iter1_exported,BulkDock Fragalysis export

>  <inchikey>  (88) 
YWDOKVFAOOWEMN-UHFFFAOYSA-N

>  <placement_batch>  (88) 
CpKRS_FrAncestor_bulkdock_iter1_cluster_best5

>  <alias>  (88) 
C322908-P7

>  <name>  (88) 
C322908-P7

>  <smiles>  (88) 
CC[C@@]1(CO)COCCN1CC(F)(F)F

>  <subsites>  (88) 


>  <distance_score>  (88) 
0.560139

$$$$
C323004-P6
     RDKit          3D

 15 15  0  0  0  0  0  0  0  0999 V2000
    6.0169   -6.6585   24.5649 C   0  0  0  0  0  0  0  0  0  0  0  0
    6.0302   -8.1623   24.6769 C   0  0  0  0  0  0  0  0  0  0  0  0
    5.0830   -8.8903   23.7381 C   0  0  2  0  0  0  0  0  0  0  0  0
    3.7274   -8.4260   23.8314 O   0  0  0  0  0  0  0  0  0  0  0  0
    5.1361  -10.4098   24.0046 C   0  0  0  0  0  0  0  0  0  0  0  0
    3.9975  -10.8848   24.8097 N   0  0  0  0  0  0  0  0  0  0  0  0
    4.1962  -10.6188   26.2546 C   0  0  0  0  0  0  0  0  0  0  0  0
    3.3089  -11.4458   27.1779 C   0  0  0  0  0  0  0  0  0  0  0  0
    3.4289  -12.8512   26.9862 O   0  0  0  0  0  0  0  0  0  0  0  0
    3.8258  -13.3013   25.6756 C   0  0  0  0  0  0  0  0  0  0  0  0
    3.0927  -14.6491   25.5086 C   0  0  0  0  0  0  0  0  0  0  0  0
    5.3348  -13.6243   25.7399 C   0  0  0  0  0  0  0  0  0  0  0  0
    3.4796  -12.2647   24.5207 C   0  0  0  0  0  0  0  0  0  0  0  0
    3.9132  -12.8353   23.1360 C   0  0  0  0  0  0  0  0  0  0  0  0
    1.9404  -12.0732   24.3698 C   0  0  0  0  0  0  0  0  0  0  0  0
  1  2  1  0
  2  3  1  0
  3  4  1  1
  3  5  1  0
  5  6  1  0
  6  7  1  0
  7  8  1  0
  8  9  1  0
  9 10  1  0
 10 11  1  0
 10 12  1  0
 10 13  1  0
 13 14  1  0
 13 15  1  0
 13  6  1  0
M  END
>  <inspiration_score>  (89) 
0.748

>  <HIPPO Pose ID>  (89) 
273615

>  <ref_pdb>  (89) 
x0654c

>  <ref_mols>  (89) 
x0414a

>  <HIPPO Compound ID>  (89) 
323004

>  <energy_score>  (89) 
-76.775574

>  <tags>  (89) 
CpKRS_FrAncestor_bulkdock_iter1,CpKRS_FrAncestor_bulkdock_iter1_cluster_best5,fragmenstein_placed,CpKRS_FrAncestor_bulkdock_iter1_exported,BulkDock Fragalysis export

>  <inchikey>  (89) 
RKUOMMXQKQORGV-UHFFFAOYSA-N

>  <placement_batch>  (89) 
CpKRS_FrAncestor_bulkdock_iter1_cluster_best5

>  <alias>  (89) 
C323004-P6

>  <name>  (89) 
C323004-P6

>  <smiles>  (89) 
CC[C@H](O)CN1CCOC(C)(C)C1(C)C

>  <subsites>  (89) 


>  <distance_score>  (89) 
0.984825

$$$$
C324375-P7
     RDKit          3D

 15 15  0  0  0  0  0  0  0  0999 V2000
    5.0530   -9.4822   22.0781 C   0  0  0  0  0  0  0  0  0  0  0  0
    4.4655   -8.8455   23.3442 C   0  0  0  0  0  0  0  0  0  0  0  0
    3.0325   -9.3248   23.5837 C   0  0  0  0  0  0  0  0  0  0  0  0
    5.3554   -8.9664   24.6044 C   0  0  2  0  0  0  0  0  0  0  0  0
    6.5686   -8.1645   24.3288 N   0  0  0  0  0  0  0  0  0  0  0  0
    5.6943  -10.4331   25.0138 C   0  0  0  0  0  0  0  0  0  0  0  0
    4.5380  -11.2365   25.4531 N   0  0  0  0  0  0  0  0  0  0  0  0
    4.2353  -10.9725   26.8804 C   0  0  0  0  0  0  0  0  0  0  0  0
    3.0128  -11.7511   27.3704 C   0  0  0  0  0  0  0  0  0  0  0  0
    3.1630  -13.1501   27.1458 O   0  0  0  0  0  0  0  0  0  0  0  0
    3.2834  -13.3961   25.7375 C   0  0  2  0  0  0  0  0  0  0  0  0
    3.1892  -14.9126   25.5577 C   0  0  0  0  0  0  0  0  0  0  0  0
    4.5939  -12.7183   25.1750 C   0  0  0  0  0  0  0  0  0  0  0  0
    5.8232  -13.3873   25.8259 C   0  0  0  0  0  0  0  0  0  0  0  0
    4.5978  -12.9767   23.6496 C   0  0  0  0  0  0  0  0  0  0  0  0
  1  2  1  0
  2  3  1  0
  2  4  1  0
  4  5  1  6
  4  6  1  0
  6  7  1  0
  7  8  1  0
  8  9  1  0
  9 10  1  0
 10 11  1  0
 11 12  1  1
 11 13  1  0
 13 14  1  0
 13 15  1  0
 13  7  1  0
M  END
>  <inspiration_score>  (90) 
0.904

>  <HIPPO Pose ID>  (90) 
276565

>  <ref_pdb>  (90) 
x0414a

>  <ref_mols>  (90) 
x0414b

>  <HIPPO Compound ID>  (90) 
324375

>  <energy_score>  (90) 
-93.111825

>  <tags>  (90) 
CpKRS_FrAncestor_bulkdock_iter1,CpKRS_FrAncestor_bulkdock_iter1_cluster_best5,fragmenstein_placed,CpKRS_FrAncestor_bulkdock_iter1_exported,BulkDock Fragalysis export

>  <inchikey>  (90) 
XDTDBKFJIQMCMN-UHFFFAOYSA-N

>  <placement_batch>  (90) 
CpKRS_FrAncestor_bulkdock_iter1_cluster_best5

>  <alias>  (90) 
C324375-P7

>  <name>  (90) 
C324375-P7

>  <smiles>  (90) 
CC(C)[C@H](N)CN1CCO[C@H](C)C1(C)C

>  <subsites>  (90) 


>  <distance_score>  (90) 
0.540455

$$$$
JHJNCVTXICZPEP-MRVPVSSYSA-N-P38
     RDKit          3D

 16 16  0  0  0  0  0  0  0  0999 V2000
    5.5060   -8.0034   21.8838 C   0  0  0  0  0  0  0  0  0  0  0  0
    5.2648   -8.8623   22.6802 C   0  0  0  0  0  0  0  0  0  0  0  0
    4.9516   -9.9222   23.6390 C   0  0  0  0  0  0  0  0  0  0  0  0
    3.9977  -10.9376   23.0132 C   0  0  1  0  0  0  0  0  0  0  0  0
    4.6994  -11.7419   21.9332 C   0  0  0  0  0  0  0  0  0  0  0  0
    3.4297  -11.8213   24.0038 N   0  0  0  0  0  0  0  0  0  0  0  0
    4.0484  -13.0208   24.7474 C   0  0  0  0  0  0  0  0  0  0  0  0
    5.1361  -13.4370   24.7346 O   0  0  0  0  0  0  0  0  0  0  0  0
    3.0756  -13.6757   25.7144 C   0  0  0  0  0  0  0  0  0  0  0  0
    1.7223  -13.3243   25.8547 C   0  0  0  0  0  0  0  0  0  0  0  0
    0.9500  -13.8469   26.8974 C   0  0  0  0  0  0  0  0  0  0  0  0
    1.5229  -14.7244   27.8084 C   0  0  0  0  0  0  0  0  0  0  0  0
    0.8189  -15.1511   28.9018 O   0  0  0  0  0  0  0  0  0  0  0  0
    2.8321  -15.1596   27.6259 C   0  0  0  0  0  0  0  0  0  0  0  0
    3.5268  -16.2694   28.7378 Cl  0  0  0  0  0  0  0  0  0  0  0  0
    3.6039  -14.6439   26.5862 C   0  0  0  0  0  0  0  0  0  0  0  0
  1  2  3  0
  2  3  1  0
  3  4  1  0
  4  5  1  6
  4  6  1  0
  6  7  1  0
  7  8  2  0
  7  9  1  0
  9 10  2  0
 10 11  1  0
 11 12  2  0
 12 13  1  0
 12 14  1  0
 14 15  1  0
 14 16  2  0
 16  9  1  0
M  END
>  <inspiration_score>  (91) 
0.734

>  <HIPPO Pose ID>  (91) 
292131

>  <ref_pdb>  (91) 
x0472c

>  <ref_mols>  (91) 
x0555a

>  <HIPPO Compound ID>  (91) 
130902

>  <energy_score>  (91) 
-416.300622

>  <tags>  (91) 
CpKRS_FrAncestor_bulkdock_iter1,CpKRS_FrAncestor_bulkdock_iter1_cluster_best5,fragmenstein_placed,CpKRS_FrAncestor_bulkdock_iter1_exported,BulkDock Fragalysis export

>  <inchikey>  (91) 
JHJNCVTXICZPEP-UHFFFAOYSA-N

>  <placement_batch>  (91) 
CpKRS_FrAncestor_bulkdock_iter1_cluster_best5

>  <alias>  (91) 
JHJNCVTXICZPEP-MRVPVSSYSA-N-P38

>  <name>  (91) 
JHJNCVTXICZPEP-MRVPVSSYSA-N-P38

>  <smiles>  (91) 
C#CC[C@@H](C)NC(=O)c1ccc(O)c(Cl)c1

>  <subsites>  (91) 


>  <distance_score>  (91) 
0.794532

$$$$
C132922-P40
     RDKit          3D

 16 16  0  0  0  0  0  0  0  0999 V2000
   -0.5371  -14.6897   25.1016 C   0  0  0  0  0  0  0  0  0  0  0  0
    0.9495  -14.7391   25.0555 C   0  0  0  0  0  0  0  0  0  0  0  0
    1.7069  -15.5973   25.7558 C   0  0  0  0  0  0  0  0  0  0  0  0
    1.1540  -16.5683   26.5054 F   0  0  0  0  0  0  0  0  0  0  0  0
    3.2054  -15.5854   25.6950 C   0  0  0  0  0  0  0  0  0  0  0  0
    3.8359  -16.5257   25.4194 O   0  0  0  0  0  0  0  0  0  0  0  0
    3.6442  -14.1267   25.9560 N   0  0  0  0  0  0  0  0  0  0  0  0
    4.9305  -13.5072   25.8393 C   0  0  0  0  0  0  0  0  0  0  0  0
    4.8928  -12.5433   24.6892 C   0  0  0  0  0  0  0  0  0  0  0  0
    4.5248  -12.9833   23.4114 C   0  0  0  0  0  0  0  0  0  0  0  0
    4.4819  -12.0726   22.3712 C   0  0  0  0  0  0  0  0  0  0  0  0
    4.7692  -10.7621   22.5113 N   0  0  0  0  0  0  0  0  0  0  0  0
    5.1597  -10.3573   23.7422 C   0  0  0  0  0  0  0  0  0  0  0  0
    5.6090   -8.5272   23.9218 Br  0  0  0  0  0  0  0  0  0  0  0  0
    5.2203  -11.1990   24.8481 C   0  0  0  0  0  0  0  0  0  0  0  0
    5.5723  -10.7345   26.0566 F   0  0  0  0  0  0  0  0  0  0  0  0
  1  2  1  0
  2  3  2  3
  3  4  1  0
  3  5  1  0
  5  6  2  0
  5  7  1  0
  7  8  1  0
  8  9  1  0
  9 10  2  0
 10 11  1  0
 11 12  2  0
 12 13  1  0
 13 14  1  0
 13 15  2  0
 15 16  1  0
 15  9  1  0
M  END
>  <inspiration_score>  (92) 
0.844

>  <HIPPO Pose ID>  (92) 
297042

>  <ref_pdb>  (92) 
x0414a

>  <ref_mols>  (92) 
x0602b

>  <HIPPO Compound ID>  (92) 
132922

>  <energy_score>  (92) 
-98.522997

>  <tags>  (92) 
CpKRS_FrAncestor_bulkdock_iter1,CpKRS_FrAncestor_bulkdock_iter1_cluster_best5,fragmenstein_placed,CpKRS_FrAncestor_bulkdock_iter1_exported,BulkDock Fragalysis export

>  <inchikey>  (92) 
DDDNIKGRFTXGDZ-UHFFFAOYSA-N

>  <placement_batch>  (92) 
CpKRS_FrAncestor_bulkdock_iter1_cluster_best5

>  <alias>  (92) 
C132922-P40

>  <name>  (92) 
C132922-P40

>  <smiles>  (92) 
CC=C(F)C(=O)NCc1ccnc(Br)c1F

>  <subsites>  (92) 


>  <distance_score>  (92) 
0.452796

$$$$
C134443-P37
     RDKit          3D

 16 16  0  0  0  0  0  0  0  0999 V2000
    6.6065  -11.3597   27.1000 C   0  0  0  0  0  0  0  0  0  0  0  0
    5.5063  -10.9617   26.8398 C   0  0  0  0  0  0  0  0  0  0  0  0
    4.1523  -10.5711   26.4229 C   0  0  2  0  0  0  0  0  0  0  0  0
    3.1524  -10.7112   27.5780 C   0  0  0  0  0  0  0  0  0  0  0  0
    2.9669  -12.0767   27.9744 O   0  0  0  0  0  0  0  0  0  0  0  0
    2.5177  -12.8850   26.8772 C   0  0  0  0  0  0  0  0  0  0  0  0
    3.4784  -12.8252   25.6913 C   0  0  0  0  0  0  0  0  0  0  0  0
    3.6448  -11.4023   25.2953 N   0  0  0  0  0  0  0  0  0  0  0  0
    4.3172  -11.1547   23.7996 S   0  0  0  0  0  0  0  0  0  0  0  0
    3.5338  -11.8421   22.8040 O   0  0  0  0  0  0  0  0  0  0  0  0
    5.7358  -11.3429   23.9061 O   0  0  0  0  0  0  0  0  0  0  0  0
    3.9792   -9.5247   23.6482 N   0  0  0  0  0  0  0  0  0  0  0  0
    2.5555   -9.1966   23.6306 C   0  0  0  0  0  0  0  0  0  0  0  0
    4.9410   -8.6345   22.9618 C   0  0  0  0  0  0  0  0  0  0  0  0
    5.4648   -9.2018   21.6499 C   0  0  0  0  0  0  0  0  0  0  0  0
    6.0637   -8.2518   23.9239 C   0  0  0  0  0  0  0  0  0  0  0  0
  1  2  3  0
  3  2  1  1
  3  4  1  0
  4  5  1  0
  5  6  1  0
  6  7  1  0
  7  8  1  0
  8  9  1  0
  9 10  2  0
  9 11  2  0
  9 12  1  0
 12 13  1  0
 12 14  1  0
 14 15  1  0
 14 16  1  0
  8  3  1  0
M  END
>  <inspiration_score>  (93) 
0.718

>  <HIPPO Pose ID>  (93) 
300100

>  <ref_pdb>  (93) 
x0414a

>  <ref_mols>  (93) 
x0540b

>  <HIPPO Compound ID>  (93) 
134443

>  <energy_score>  (93) 
-70.146639

>  <tags>  (93) 
CpKRS_FrAncestor_bulkdock_iter1,CpKRS_FrAncestor_bulkdock_iter1_cluster_best5,fragmenstein_placed,CpKRS_FrAncestor_bulkdock_iter1_exported,BulkDock Fragalysis export

>  <inchikey>  (93) 
BNRSAXLEYBURFU-UHFFFAOYSA-N

>  <placement_batch>  (93) 
CpKRS_FrAncestor_bulkdock_iter1_cluster_best5

>  <alias>  (93) 
C134443-P37

>  <name>  (93) 
C134443-P37

>  <smiles>  (93) 
C#C[C@@H]1COCCN1S(=O)(=O)N(C)C(C)C

>  <subsites>  (93) 


>  <distance_score>  (93) 
0.684393

$$$$
C134552-P22
     RDKit          3D

 16 16  0  0  0  0  0  0  0  0999 V2000
   23.1831    7.7311   24.1726 C   0  0  0  0  0  0  0  0  0  0  0  0
   24.1998    7.0205   25.0255 C   0  0  0  0  0  0  0  0  0  0  0  0
   23.9987    5.6699   25.3479 C   0  0  0  0  0  0  0  0  0  0  0  0
   24.9199    4.9623   26.1350 C   0  0  0  0  0  0  0  0  0  0  0  0
   24.7017    3.5022   26.3982 C   0  0  0  0  0  0  0  0  0  0  0  0
   26.0736    5.6128   26.5884 C   0  0  0  0  0  0  0  0  0  0  0  0
   26.9857    4.8732   27.4208 N   0  0  0  0  0  0  0  0  0  0  0  0
   26.8042    5.0541   28.8729 C   0  0  0  0  0  0  0  0  0  0  0  0
   28.5973    4.7102   26.9099 S   0  0  0  0  0  0  0  0  0  0  0  0
   29.1768    6.0256   26.7160 O   0  0  0  0  0  0  0  0  0  0  0  0
   29.2406    3.7859   27.8299 O   0  0  0  0  0  0  0  0  0  0  0  0
   28.4484    3.8610   25.3277 C   0  0  0  0  0  0  0  0  0  0  0  0
   27.8212    4.5892   24.3615 F   0  0  0  0  0  0  0  0  0  0  0  0
   26.2658    6.9659   26.3011 C   0  0  0  0  0  0  0  0  0  0  0  0
   25.3506    7.6743   25.5022 C   0  0  0  0  0  0  0  0  0  0  0  0
   25.6722    9.0896   25.1038 C   0  0  0  0  0  0  0  0  0  0  0  0
  1  2  1  0
  2  3  2  0
  3  4  1  0
  4  5  1  0
  4  6  2  0
  6  7  1  0
  7  8  1  0
  7  9  1  0
  9 10  2  0
  9 11  2  0
  9 12  1  0
 12 13  1  0
  6 14  1  0
 14 15  2  0
 15 16  1  0
 15  2  1  0
M  END
>  <inspiration_score>  (94) 
0.344

>  <HIPPO Pose ID>  (94) 
300396

>  <ref_pdb>  (94) 
x0414a

>  <ref_mols>  (94) 
x0472b

>  <HIPPO Compound ID>  (94) 
134552

>  <energy_score>  (94) 
-170.20042

>  <tags>  (94) 
CpKRS_FrAncestor_bulkdock_iter1,CpKRS_FrAncestor_bulkdock_iter1_cluster_best5,fragmenstein_placed,CpKRS_FrAncestor_bulkdock_iter1_exported,BulkDock Fragalysis export

>  <inchikey>  (94) 
FMWFDVXIBWHUOP-UHFFFAOYSA-N

>  <placement_batch>  (94) 
CpKRS_FrAncestor_bulkdock_iter1_cluster_best5

>  <alias>  (94) 
C134552-P22

>  <name>  (94) 
C134552-P22

>  <smiles>  (94) 
Cc1cc(C)c(N(C)S(=O)(=O)CF)cc1C

>  <subsites>  (94) 


>  <distance_score>  (94) 
0.492622

$$$$
C140046-P6
     RDKit          3D

 16 16  0  0  0  0  0  0  0  0999 V2000
    5.0748   -7.0348   25.9616 C   0  0  0  0  0  0  0  0  0  0  0  0
    5.6096   -7.5785   24.8614 C   0  0  0  0  0  0  0  0  0  0  0  0
    7.1337   -6.9777   24.3495 Cl  0  0  0  0  0  0  0  0  0  0  0  0
    5.0369   -8.6844   24.0211 C   0  0  2  0  0  0  0  0  0  0  0  0
    3.6046   -8.5576   23.8894 O   0  0  0  0  0  0  0  0  0  0  0  0
    5.4307  -10.0750   24.5848 C   0  0  0  0  0  0  0  0  0  0  0  0
    4.2641  -10.8063   25.1560 N   0  0  0  0  0  0  0  0  0  0  0  0
    4.1582  -10.4197   26.5894 C   0  0  0  0  0  0  0  0  0  0  0  0
    3.2734  -11.3258   27.4205 C   0  0  0  0  0  0  0  0  0  0  0  0
    3.8627  -12.6157   27.3745 O   0  0  0  0  0  0  0  0  0  0  0  0
    3.7110  -13.1599   26.0737 C   0  0  0  0  0  0  0  0  0  0  0  0
    4.3689  -12.2910   24.9495 C   0  0  1  0  0  0  0  0  0  0  0  0
    3.7857  -12.7631   23.5417 C   0  0  0  0  0  0  0  0  0  0  0  0
    2.2940  -12.3878   23.3887 C   0  0  0  0  0  0  0  0  0  0  0  0
    3.9175  -14.2988   23.3897 C   0  0  0  0  0  0  0  0  0  0  0  0
    4.5228  -12.1486   22.3381 C   0  0  0  0  0  0  0  0  0  0  0  0
  1  2  2  0
  2  3  1  0
  2  4  1  0
  4  5  1  1
  4  6  1  0
  6  7  1  0
  7  8  1  0
  8  9  1  0
  9 10  1  0
 10 11  1  0
 11 12  1  0
 12 13  1  6
 13 14  1  0
 13 15  1  0
 13 16  1  0
 12  7  1  0
M  END
>  <inspiration_score>  (95) 
0.791

>  <HIPPO Pose ID>  (95) 
302914

>  <ref_pdb>  (95) 
x0675a

>  <ref_mols>  (95) 
x0414a

>  <HIPPO Compound ID>  (95) 
140046

>  <energy_score>  (95) 
-76.59731

>  <tags>  (95) 
CpKRS_FrAncestor_bulkdock_iter1,CpKRS_FrAncestor_bulkdock_iter1_cluster_best5,fragmenstein_placed,CpKRS_FrAncestor_bulkdock_iter1_exported,BulkDock Fragalysis export

>  <inchikey>  (95) 
XRFIPPDQMDTEFY-UHFFFAOYSA-N

>  <placement_batch>  (95) 
CpKRS_FrAncestor_bulkdock_iter1_cluster_best5

>  <alias>  (95) 
C140046-P6

>  <name>  (95) 
C140046-P6

>  <smiles>  (95) 
C=C(Cl)[C@H](O)CN1CCOC[C@H]1C(C)(C)C

>  <subsites>  (95) 


>  <distance_score>  (95) 
0.740935

$$$$
C141958-P59
     RDKit          3D

 16 17  0  0  0  0  0  0  0  0999 V2000
    1.1556  -23.8556   17.2834 C   0  0  0  0  0  0  0  0  0  0  0  0
    2.4954  -24.5820   17.2958 C   0  0  1  0  0  0  0  0  0  0  0  0
    3.4266  -24.1176   18.4410 C   0  0  0  0  0  0  0  0  0  0  0  0
    2.9853  -24.5868   19.7653 N   0  0  0  0  0  0  0  0  0  0  0  0
    3.9525  -24.3076   20.8337 C   0  0  0  0  0  0  0  0  0  0  0  0
    4.2847  -22.8505   21.0221 C   0  0  0  0  0  0  0  0  0  0  0  0
    5.4450  -22.2877   20.4727 C   0  0  0  0  0  0  0  0  0  0  0  0
    5.7316  -20.9432   20.6874 C   0  0  0  0  0  0  0  0  0  0  0  0
    4.8621  -20.1584   21.4446 C   0  0  0  0  0  0  0  0  0  0  0  0
    3.7447  -20.7073   22.0686 C   0  0  0  0  0  0  0  0  0  0  0  0
    2.8326  -19.8998   22.7402 N   0  0  0  0  0  0  0  0  0  0  0  0
    3.4335  -22.0417   21.7951 C   0  0  0  0  0  0  0  0  0  0  0  0
    2.6328  -26.0269   19.7517 C   0  0  1  0  0  0  0  0  0  0  0  0
    1.1924  -26.1880   20.2423 C   0  0  0  0  0  0  0  0  0  0  0  0
    2.8334  -26.6938   18.3772 C   0  0  0  0  0  0  0  0  0  0  0  0
    2.2288  -25.9956   17.2904 O   0  0  0  0  0  0  0  0  0  0  0  0
  2  1  1  1
  2  3  1  0
  3  4  1  0
  4  5  1  0
  5  6  1  0
  6  7  2  0
  7  8  1  0
  8  9  2  0
  9 10  1  0
 10 11  1  0
 10 12  2  0
  4 13  1  0
 13 14  1  6
 13 15  1  0
 15 16  1  0
 16  2  1  0
 12  6  1  0
M  END
>  <inspiration_score>  (96) 
0.802

>  <HIPPO Pose ID>  (96) 
306769

>  <ref_pdb>  (96) 
x0675a

>  <ref_mols>  (96) 
x0675a

>  <HIPPO Compound ID>  (96) 
141958

>  <energy_score>  (96) 
-62.123146

>  <tags>  (96) 
CpKRS_FrAncestor_bulkdock_iter1,CpKRS_FrAncestor_bulkdock_iter1_cluster_best5,fragmenstein_placed,CpKRS_FrAncestor_bulkdock_iter1_exported,BulkDock Fragalysis export

>  <inchikey>  (96) 
IBXSRWLUCNXWSL-UHFFFAOYSA-N

>  <placement_batch>  (96) 
CpKRS_FrAncestor_bulkdock_iter1_cluster_best5

>  <alias>  (96) 
C141958-P59

>  <name>  (96) 
C141958-P59

>  <smiles>  (96) 
C[C@H]1CN(Cc2cccc(N)c2)[C@@H](C)CO1

>  <subsites>  (96) 


>  <distance_score>  (96) 
0.375285

$$$$
C150440-P19
     RDKit          3D

 17 17  0  0  0  0  0  0  0  0999 V2000
    4.0529    9.1169   36.8849 C   0  0  0  0  0  0  0  0  0  0  0  0
    5.4417    9.6895   36.8741 C   0  0  0  0  0  0  0  0  0  0  0  0
    6.2230    9.8378   37.9622 C   0  0  0  0  0  0  0  0  0  0  0  0
    5.7166    9.4735   39.3031 C   0  0  0  0  0  0  0  0  0  0  0  0
    5.3075   10.2644   40.0572 O   0  0  0  0  0  0  0  0  0  0  0  0
    5.7600    7.9282   39.3942 N   0  0  0  0  0  0  0  0  0  0  0  0
    5.2441    7.0684   40.3507 C   0  0  0  0  0  0  0  0  0  0  0  0
    5.5177    5.7046   40.2504 C   0  0  0  0  0  0  0  0  0  0  0  0
    4.9595    4.8126   41.1671 C   0  0  0  0  0  0  0  0  0  0  0  0
    4.1196    5.2854   42.1659 C   0  0  0  0  0  0  0  0  0  0  0  0
    3.5741    4.3852   43.0305 O   0  0  0  0  0  0  0  0  0  0  0  0
    3.8498    6.6440   42.2753 C   0  0  0  0  0  0  0  0  0  0  0  0
    4.4181    7.5380   41.3682 C   0  0  0  0  0  0  0  0  0  0  0  0
    5.8842   10.1214   35.5087 C   0  0  0  0  0  0  0  0  0  0  0  0
    5.0077   10.9840   34.9371 F   0  0  0  0  0  0  0  0  0  0  0  0
    7.1172   10.6705   35.4816 F   0  0  0  0  0  0  0  0  0  0  0  0
    5.9176    9.0272   34.7038 F   0  0  0  0  0  0  0  0  0  0  0  0
  1  2  1  0
  2  3  2  3
  3  4  1  0
  4  5  2  0
  4  6  1  0
  6  7  1  0
  7  8  2  0
  8  9  1  0
  9 10  2  0
 10 11  1  0
 10 12  1  0
 12 13  2  0
  2 14  1  0
 14 15  1  0
 14 16  1  0
 14 17  1  0
 13  7  1  0
M  END
>  <inspiration_score>  (97) 
0.685

>  <HIPPO Pose ID>  (97) 
320863

>  <ref_pdb>  (97) 
x0540b

>  <ref_mols>  (97) 
x0436b

>  <HIPPO Compound ID>  (97) 
150440

>  <energy_score>  (97) 
-42.253662

>  <tags>  (97) 
CpKRS_FrAncestor_bulkdock_iter1,CpKRS_FrAncestor_bulkdock_iter1_cluster_best5,fragmenstein_placed,CpKRS_FrAncestor_bulkdock_iter1_exported,BulkDock Fragalysis export

>  <inchikey>  (97) 
QUDNTRBVIQEGPO-UHFFFAOYSA-N

>  <placement_batch>  (97) 
CpKRS_FrAncestor_bulkdock_iter1_cluster_best5

>  <alias>  (97) 
C150440-P19

>  <name>  (97) 
C150440-P19

>  <smiles>  (97) 
CC(=CC(=O)Nc1ccc(O)cc1)C(F)(F)F

>  <subsites>  (97) 


>  <distance_score>  (97) 
0.638553

$$$$
C160377-P15
     RDKit          3D

 19 20  0  0  0  0  0  0  0  0999 V2000
    3.1080  -24.9224   21.8195 C   0  0  0  0  0  0  0  0  0  0  0  0
    2.9780  -26.1288   20.9001 C   0  0  0  0  0  0  0  0  0  0  0  0
    3.1065  -25.7854   19.4996 N   0  0  0  0  0  0  0  0  0  0  0  0
    2.4014  -26.3006   18.4496 C   0  0  0  0  0  0  0  0  0  0  0  0
    2.7992  -25.5915   17.3388 C   0  0  0  0  0  0  0  0  0  0  0  0
    2.3744  -25.8615   16.0023 C   0  0  0  0  0  0  0  0  0  0  0  0
    2.2323  -24.9476   15.0317 C   0  0  0  0  0  0  0  0  0  0  0  0
    2.0174  -25.3791   13.6294 C   0  0  0  0  0  0  0  0  0  0  0  0
    2.2711  -26.5280   13.2643 O   0  0  0  0  0  0  0  0  0  0  0  0
    1.5892  -24.3853   12.6131 C   0  0  0  0  0  0  0  0  0  0  0  0
    0.9178  -23.2049   12.9547 C   0  0  0  0  0  0  0  0  0  0  0  0
    0.5612  -22.2860   11.9636 C   0  0  0  0  0  0  0  0  0  0  0  0
    0.8350  -22.5589   10.6280 C   0  0  0  0  0  0  0  0  0  0  0  0
    1.4363  -23.7622   10.2735 C   0  0  0  0  0  0  0  0  0  0  0  0
    1.8336  -24.6559   11.2586 C   0  0  0  0  0  0  0  0  0  0  0  0
    2.4521  -25.7970   10.8180 O   0  0  0  0  0  0  0  0  0  0  0  0
    3.7680  -24.6789   17.8350 C   0  0  0  0  0  0  0  0  0  0  0  0
    4.5536  -23.6558   17.1312 C   0  0  0  0  0  0  0  0  0  0  0  0
    4.0275  -24.8832   19.1301 N   0  0  0  0  0  0  0  0  0  0  0  0
  1  2  1  0
  2  3  1  0
  3  4  1  0
  4  5  2  0
  5  6  1  0
  6  7  2  3
  7  8  1  0
  8  9  2  0
  8 10  1  0
 10 11  2  0
 11 12  1  0
 12 13  2  0
 13 14  1  0
 14 15  2  0
 15 16  1  0
  5 17  1  0
 17 18  1  0
 17 19  2  0
 19  3  1  0
 15 10  1  0
M  END
>  <inspiration_score>  (98) 
0.682

>  <HIPPO Pose ID>  (98) 
331085

>  <ref_pdb>  (98) 
x0434a

>  <ref_mols>  (98) 
x0426b

>  <HIPPO Compound ID>  (98) 
160377

>  <energy_score>  (98) 
-59.620783

>  <tags>  (98) 
CpKRS_FrAncestor_bulkdock_iter1,CpKRS_FrAncestor_bulkdock_iter1_cluster_best5,fragmenstein_placed,CpKRS_FrAncestor_bulkdock_iter1_exported,BulkDock Fragalysis export

>  <inchikey>  (98) 
ZBMWLMXQXQLFCU-UHFFFAOYSA-N

>  <placement_batch>  (98) 
CpKRS_FrAncestor_bulkdock_iter1_cluster_best5

>  <alias>  (98) 
C160377-P15

>  <name>  (98) 
C160377-P15

>  <smiles>  (98) 
CCn1cc(C=CC(=O)c2ccccc2O)c(C)n1

>  <subsites>  (98) 


>  <distance_score>  (98) 
0.708178

$$$$
C160765-P50
     RDKit          3D

 15 15  0  0  0  0  0  0  0  0999 V2000
    2.7372  -11.8705   22.5713 C   0  0  0  0  0  0  0  0  0  0  0  0
    2.1718  -12.2571   23.8855 C   0  0  0  0  0  0  0  0  0  0  0  0
    2.3346  -13.6634   23.9098 O   0  0  0  0  0  0  0  0  0  0  0  0
    2.1973  -14.1855   25.1502 C   0  0  0  0  0  0  0  0  0  0  0  0
    1.3111  -13.6453   26.0798 C   0  0  0  0  0  0  0  0  0  0  0  0
    1.3372  -14.0955   27.3786 C   0  0  0  0  0  0  0  0  0  0  0  0
    2.2292  -15.1058   27.7434 C   0  0  0  0  0  0  0  0  0  0  0  0
    2.3746  -15.4099   29.2005 C   0  0  2  0  0  0  0  0  0  0  0  0
    3.6505  -16.1910   29.4800 C   0  0  0  0  0  0  0  0  0  0  0  0
    1.1882  -16.0479   29.7513 N   0  0  0  0  0  0  0  0  0  0  0  0
    3.0109  -15.7356   26.7633 C   0  0  0  0  0  0  0  0  0  0  0  0
    2.9906  -15.2815   25.4633 C   0  0  0  0  0  0  0  0  0  0  0  0
    3.8281  -15.9026   24.5786 O   0  0  0  0  0  0  0  0  0  0  0  0
    3.1231  -16.5240   23.4950 C   0  0  0  0  0  0  0  0  0  0  0  0
    2.5768  -17.8789   23.9182 C   0  0  0  0  0  0  0  0  0  0  0  0
  1  2  1  0
  2  3  1  0
  3  4  1  0
  4  5  2  0
  5  6  1  0
  6  7  2  0
  7  8  1  0
  8  9  1  6
  8 10  1  0
  7 11  1  0
 11 12  2  0
 12 13  1  0
 13 14  1  0
 14 15  1  0
 12  4  1  0
M  END
>  <inspiration_score>  (99) 
0.511

>  <HIPPO Pose ID>  (99) 
332077

>  <ref_pdb>  (99) 
x0434a

>  <ref_mols>  (99) 
x0634a

>  <HIPPO Compound ID>  (99) 
160765

>  <energy_score>  (99) 
-126.879954

>  <tags>  (99) 
CpKRS_FrAncestor_bulkdock_iter1,CpKRS_FrAncestor_bulkdock_iter1_cluster_best5,fragmenstein_placed,CpKRS_FrAncestor_bulkdock_iter1_exported,BulkDock Fragalysis export

>  <inchikey>  (99) 
OXUSXEBIIDKQFW-UHFFFAOYSA-N

>  <placement_batch>  (99) 
CpKRS_FrAncestor_bulkdock_iter1_cluster_best5

>  <alias>  (99) 
C160765-P50

>  <name>  (99) 
C160765-P50

>  <smiles>  (99) 
CCOc1ccc([C@H](C)N)cc1OCC

>  <subsites>  (99) 


>  <distance_score>  (99) 
0.937381

$$$$
C161464-P6
     RDKit          3D

 15 15  0  0  0  0  0  0  0  0999 V2000
    0.1338  -12.6750   23.9793 C   0  0  0  0  0  0  0  0  0  0  0  0
    0.7751  -13.8915   24.5205 N   0  0  0  0  0  0  0  0  0  0  0  0
   -0.0035  -15.1084   24.2235 C   0  0  0  0  0  0  0  0  0  0  0  0
    1.2907  -13.7810   26.1360 S   0  0  0  0  0  0  0  0  0  0  0  0
    0.1868  -13.2396   26.9013 O   0  0  0  0  0  0  0  0  0  0  0  0
    1.8942  -15.0423   26.4842 O   0  0  0  0  0  0  0  0  0  0  0  0
    2.4916  -12.6315   25.9384 N   0  0  0  0  0  0  0  0  0  0  0  0
    3.7410  -13.1099   25.2904 C   0  0  0  0  0  0  0  0  0  0  0  0
    4.5344  -11.8867   24.7920 C   0  0  0  0  0  0  0  0  0  0  0  0
    4.8622  -10.9382   25.8726 N   0  0  0  0  0  0  0  0  0  0  0  0
    5.6243   -9.7662   25.4135 C   0  0  0  0  0  0  0  0  0  0  0  0
    5.0976   -8.9975   24.1811 C   0  0  0  0  0  0  0  0  0  0  0  0
    5.8855   -7.7940   23.9052 N   0  0  0  0  0  0  0  0  0  0  0  0
    3.6348  -10.5512   26.6083 C   0  0  0  0  0  0  0  0  0  0  0  0
    2.8221  -11.7706   27.0999 C   0  0  0  0  0  0  0  0  0  0  0  0
  1  2  1  0
  2  3  1  0
  2  4  1  0
  4  5  2  0
  4  6  2  0
  4  7  1  0
  7  8  1  0
  8  9  1  0
  9 10  1  0
 10 11  1  0
 11 12  1  0
 12 13  1  0
 10 14  1  0
 14 15  1  0
 15  7  1  0
M  END
>  <inspiration_score>  (100) 
0.499

>  <HIPPO Pose ID>  (100) 
333454

>  <ref_pdb>  (100) 
x0434a

>  <ref_mols>  (100) 
x0414a

>  <HIPPO Compound ID>  (100) 
161464

>  <energy_score>  (100) 
-74.375225

>  <tags>  (100) 
CpKRS_FrAncestor_bulkdock_iter1,CpKRS_FrAncestor_bulkdock_iter1_cluster_best5,fragmenstein_placed,CpKRS_FrAncestor_bulkdock_iter1_exported,BulkDock Fragalysis export

>  <inchikey>  (100) 
FZCAHTIUYPZIPW-UHFFFAOYSA-N

>  <placement_batch>  (100) 
CpKRS_FrAncestor_bulkdock_iter1_cluster_best5

>  <alias>  (100) 
C161464-P6

>  <name>  (100) 
C161464-P6

>  <smiles>  (100) 
CN(C)S(=O)(=O)N1CCN(CCN)CC1

>  <subsites>  (100) 


>  <distance_score>  (100) 
0.639115

$$$$
C162376-P7
     RDKit          3D

 13 13  0  0  0  0  0  0  0  0999 V2000
    4.9073   -9.2862   22.0247 C   0  0  0  0  0  0  0  0  0  0  0  0
    4.1347   -8.4042   22.8375 O   0  0  0  0  0  0  0  0  0  0  0  0
    3.9850   -8.8864   24.1803 C   0  0  0  0  0  0  0  0  0  0  0  0
    5.2979   -8.9992   24.9826 C   0  0  0  0  0  0  0  0  0  0  0  0
    5.7407  -10.3948   25.1601 N   0  0  0  0  0  0  0  0  0  0  0  0
    4.7771  -11.2270   25.7877 C   0  0  0  0  0  0  0  0  0  0  0  0
    4.2250  -10.9077   27.0279 C   0  0  0  0  0  0  0  0  0  0  0  0
    3.1697  -11.6632   27.5418 C   0  0  0  0  0  0  0  0  0  0  0  0
    2.6688  -12.7633   26.8406 C   0  0  0  0  0  0  0  0  0  0  0  0
    1.4345  -13.4822   27.2961 C   0  0  0  0  0  0  0  0  0  0  0  0
    3.2759  -13.1379   25.6419 C   0  0  0  0  0  0  0  0  0  0  0  0
    4.2973  -12.3606   25.0955 C   0  0  0  0  0  0  0  0  0  0  0  0
    4.9598  -12.8097   23.9205 N   0  0  0  0  0  0  0  0  0  0  0  0
  1  2  1  0
  2  3  1  0
  3  4  1  0
  4  5  1  0
  5  6  1  0
  6  7  2  0
  7  8  1  0
  8  9  2  0
  9 10  1  0
  9 11  1  0
 11 12  2  0
 12 13  1  0
 12  6  1  0
M  END
>  <inspiration_score>  (101) 
0.384

>  <HIPPO Pose ID>  (101) 
335141

>  <ref_pdb>  (101) 
x0434a

>  <ref_mols>  (101) 
x0414b

>  <HIPPO Compound ID>  (101) 
162376

>  <energy_score>  (101) 
-113.852892

>  <tags>  (101) 
CpKRS_FrAncestor_bulkdock_iter1,CpKRS_FrAncestor_bulkdock_iter1_cluster_best5,fragmenstein_placed,CpKRS_FrAncestor_bulkdock_iter1_exported,BulkDock Fragalysis export

>  <inchikey>  (101) 
OQIXWRYBSGAIFQ-UHFFFAOYSA-N

>  <placement_batch>  (101) 
CpKRS_FrAncestor_bulkdock_iter1_cluster_best5

>  <alias>  (101) 
C162376-P7

>  <name>  (101) 
C162376-P7

>  <smiles>  (101) 
COCCNc1ccc(C)cc1N

>  <subsites>  (101) 


>  <distance_score>  (101) 
0.601577

$$$$
ALKNZDHLZRYQQN-UHFFFAOYSA-N-P31
     RDKit          3D

 16 16  0  0  0  0  0  0  0  0999 V2000
    0.6881   14.0917   41.1994 C   0  0  0  0  0  0  0  0  0  0  0  0
   -0.1898   12.9812   40.6683 C   0  0  0  0  0  0  0  0  0  0  0  0
    0.6150   11.9258   40.0199 N   0  0  0  0  0  0  0  0  0  0  0  0
    1.2833   10.7485   41.0309 S   0  0  0  0  0  0  0  0  0  0  0  0
    1.4995   11.3055   42.3417 O   0  0  0  0  0  0  0  0  0  0  0  0
    0.4742    9.5766   40.7943 O   0  0  0  0  0  0  0  0  0  0  0  0
    2.8513   10.4348   40.3136 C   0  0  0  0  0  0  0  0  0  0  0  0
    3.2812   11.0485   39.1391 C   0  0  0  0  0  0  0  0  0  0  0  0
    4.4505   10.5939   38.5411 C   0  0  0  0  0  0  0  0  0  0  0  0
    5.1444    9.5696   39.1675 C   0  0  0  0  0  0  0  0  0  0  0  0
    6.4083    8.6912   38.2678 S   0  0  0  0  0  0  0  0  0  0  0  0
    6.0667    7.0004   38.6915 C   0  0  0  0  0  0  0  0  0  0  0  0
    6.1026    8.8508   36.8549 O   0  0  0  0  0  0  0  0  0  0  0  0
    7.7076    9.0613   38.7824 O   0  0  0  0  0  0  0  0  0  0  0  0
    4.7645    8.9762   40.3333 N   0  0  0  0  0  0  0  0  0  0  0  0
    3.6242    9.4401   40.8867 C   0  0  0  0  0  0  0  0  0  0  0  0
  1  2  1  0
  2  3  1  0
  3  4  1  0
  4  5  2  0
  4  6  2  0
  4  7  1  0
  7  8  2  0
  8  9  1  0
  9 10  2  0
 10 11  1  0
 11 12  1  0
 11 13  2  0
 11 14  2  0
 10 15  1  0
 15 16  2  0
 16  7  1  0
M  END
>  <inspiration_score>  (102) 
0.579

>  <HIPPO Pose ID>  (102) 
336439

>  <ref_pdb>  (102) 
x0504c

>  <ref_mols>  (102) 
x0487b

>  <HIPPO Compound ID>  (102) 
163063

>  <energy_score>  (102) 
-148.879904

>  <tags>  (102) 
CpKRS_FrAncestor_bulkdock_iter1,CpKRS_FrAncestor_bulkdock_iter1_cluster_best5,fragmenstein_placed,CpKRS_FrAncestor_bulkdock_iter1_exported,BulkDock Fragalysis export

>  <inchikey>  (102) 
ALKNZDHLZRYQQN-UHFFFAOYSA-N

>  <placement_batch>  (102) 
CpKRS_FrAncestor_bulkdock_iter1_cluster_best5

>  <alias>  (102) 
ALKNZDHLZRYQQN-UHFFFAOYSA-N-P31

>  <name>  (102) 
ALKNZDHLZRYQQN-UHFFFAOYSA-N-P31

>  <smiles>  (102) 
CCNS(=O)(=O)c1ccc(S(C)(=O)=O)nc1

>  <subsites>  (102) 


>  <distance_score>  (102) 
0.5804

$$$$
UCNOQRVCJSCSLS-UHFFFAOYSA-N-P42
     RDKit          3D

 19 20  0  0  0  0  0  0  0  0999 V2000
    2.1951    8.4416   40.0891 C   0  0  0  0  0  0  0  0  0  0  0  0
    2.8574    7.0797   39.9059 C   0  0  0  0  0  0  0  0  0  0  0  0
    3.9989    6.8619   40.8237 N   0  0  0  0  0  0  0  0  0  0  0  0
    5.1191    7.7761   40.4893 C   0  0  0  0  0  0  0  0  0  0  0  0
    5.7935    7.5392   39.1279 C   0  0  0  0  0  0  0  0  0  0  0  0
    5.8124    6.1740   38.7281 O   0  0  0  0  0  0  0  0  0  0  0  0
    5.7948    5.2740   39.8377 C   0  0  0  0  0  0  0  0  0  0  0  0
    4.4924    5.4351   40.6536 C   0  0  1  0  0  0  0  0  0  0  0  0
    4.6947    4.7369   42.0235 C   0  0  0  0  0  0  0  0  0  0  0  0
    5.4220    3.8305   42.1527 O   0  0  0  0  0  0  0  0  0  0  0  0
    3.7153    5.3960   43.0377 N   0  0  0  0  0  0  0  0  0  0  0  0
    3.3781    5.0289   44.3311 C   0  0  0  0  0  0  0  0  0  0  0  0
    2.5982    5.8441   45.1291 C   0  0  0  0  0  0  0  0  0  0  0  0
    2.1318    5.3593   46.3555 C   0  0  0  0  0  0  0  0  0  0  0  0
    1.0805    6.0774   47.1350 C   0  0  0  0  0  0  0  0  0  0  0  0
    2.5862    4.1270   46.7969 C   0  0  0  0  0  0  0  0  0  0  0  0
    3.4583    3.4280   45.9855 C   0  0  0  0  0  0  0  0  0  0  0  0
    4.0486    2.1501   46.4381 C   0  0  0  0  0  0  0  0  0  0  0  0
    3.8370    3.8521   44.7689 N   0  0  0  0  0  0  0  0  0  0  0  0
  1  2  1  0
  2  3  1  0
  3  4  1  0
  4  5  1  0
  5  6  1  0
  6  7  1  0
  7  8  1  0
  8  9  1  1
  9 10  2  0
  9 11  1  0
 11 12  1  0
 12 13  2  0
 13 14  1  0
 14 15  1  0
 14 16  2  0
 16 17  1  0
 17 18  1  0
 17 19  2  0
  8  3  1  0
 19 12  1  0
M  END
>  <inspiration_score>  (103) 
0.795

>  <HIPPO Pose ID>  (103) 
338238

>  <ref_pdb>  (103) 
x0485b

>  <ref_mols>  (103) 
x0606b

>  <HIPPO Compound ID>  (103) 
220768

>  <energy_score>  (103) 
-62.307826

>  <tags>  (103) 
CpKRS_FrAncestor_bulkdock_iter1,CpKRS_FrAncestor_bulkdock_iter1_cluster_best5,fragmenstein_placed,CpKRS_FrAncestor_bulkdock_iter1_exported,BulkDock Fragalysis export

>  <inchikey>  (103) 
UCNOQRVCJSCSLS-UHFFFAOYSA-N

>  <placement_batch>  (103) 
CpKRS_FrAncestor_bulkdock_iter1_cluster_best5

>  <alias>  (103) 
UCNOQRVCJSCSLS-UHFFFAOYSA-N-P42

>  <name>  (103) 
UCNOQRVCJSCSLS-UHFFFAOYSA-N-P42

>  <smiles>  (103) 
CCN1CCOCC1C(=O)Nc1cc(C)cc(C)n1

>  <subsites>  (103) 


>  <distance_score>  (103) 
0.691563

$$$$
PRMBNKAALDSHFB-UHFFFAOYSA-N-P33
     RDKit          3D

 17 18  0  0  0  0  0  0  0  0999 V2000
    5.7628   -8.1093   23.5866 C   0  0  0  0  0  0  0  0  0  0  0  0
    5.2612   -9.4041   23.8738 O   0  0  0  0  0  0  0  0  0  0  0  0
    3.8964   -9.6139   23.4771 C   0  0  2  0  0  0  0  0  0  0  0  0
    2.9755   -9.0094   24.5191 C   0  0  0  0  0  0  0  0  0  0  0  0
    3.6668  -11.1344   23.2310 C   0  0  0  0  0  0  0  0  0  0  0  0
    4.7131  -11.9968   23.9379 C   0  0  0  0  0  0  0  0  0  0  0  0
    4.2363  -13.4137   24.1933 C   0  0  0  0  0  0  0  0  0  0  0  0
    3.0658  -13.3942   25.0813 N   0  0  0  0  0  0  0  0  0  0  0  0
    3.0103  -14.1792   26.2360 C   0  0  0  0  0  0  0  0  0  0  0  0
    3.9439  -15.1923   26.4848 C   0  0  0  0  0  0  0  0  0  0  0  0
    3.8953  -15.9452   27.6539 C   0  0  0  0  0  0  0  0  0  0  0  0
    2.9905  -15.7900   28.6366 N   0  0  0  0  0  0  0  0  0  0  0  0
    2.0671  -14.8460   28.3823 C   0  0  0  0  0  0  0  0  0  0  0  0
    2.0271  -14.0540   27.2333 C   0  0  0  0  0  0  0  0  0  0  0  0
    1.0129  -13.1758   27.1339 F   0  0  0  0  0  0  0  0  0  0  0  0
    2.0746  -12.3379   24.8528 C   0  0  0  0  0  0  0  0  0  0  0  0
    2.2479  -11.6802   23.4785 C   0  0  0  0  0  0  0  0  0  0  0  0
  1  2  1  0
  2  3  1  0
  3  4  1  1
  3  5  1  0
  5  6  1  0
  6  7  1  0
  7  8  1  0
  8  9  1  0
  9 10  2  0
 10 11  1  0
 11 12  2  0
 12 13  1  0
 13 14  2  0
 14 15  1  0
  8 16  1  0
 16 17  1  0
 17  5  1  0
 14  9  1  0
M  END
>  <inspiration_score>  (104) 
0.666

>  <HIPPO Pose ID>  (104) 
351373

>  <ref_pdb>  (104) 
x0646a

>  <ref_mols>  (104) 
x0489a

>  <HIPPO Compound ID>  (104) 
230655

>  <energy_score>  (104) 
-86.289485

>  <tags>  (104) 
CpKRS_FrAncestor_bulkdock_iter1,CpKRS_FrAncestor_bulkdock_iter1_cluster_best5,fragmenstein_placed,CpKRS_FrAncestor_bulkdock_iter1_exported,BulkDock Fragalysis export

>  <inchikey>  (104) 
PRMBNKAALDSHFB-UHFFFAOYSA-N

>  <placement_batch>  (104) 
CpKRS_FrAncestor_bulkdock_iter1_cluster_best5

>  <alias>  (104) 
PRMBNKAALDSHFB-UHFFFAOYSA-N-P33

>  <name>  (104) 
PRMBNKAALDSHFB-UHFFFAOYSA-N-P33

>  <smiles>  (104) 
COC(C)C1CCN(c2ccncc2F)CC1

>  <subsites>  (104) 


>  <distance_score>  (104) 
0.558672

$$$$
VNZXIZTXLKWHKG-UHFFFAOYSA-N-P3
     RDKit          3D

 17 18  0  0  0  0  0  0  0  0999 V2000
    3.0739    8.7601   39.9362 C   0  0  0  0  0  0  0  0  0  0  0  0
    4.1481    8.3461   39.5930 C   0  0  0  0  0  0  0  0  0  0  0  0
    5.4776    7.8106   39.1949 C   0  0  2  0  0  0  0  0  0  0  0  0
    6.3445    8.9433   38.6498 C   0  0  0  0  0  0  0  0  0  0  0  0
    5.3182    6.6521   38.2017 C   0  0  0  0  0  0  0  0  0  0  0  0
    5.0209    5.4372   39.0780 C   0  0  0  0  0  0  0  0  0  0  0  0
    5.5272    5.7820   40.3725 N   0  0  0  0  0  0  0  0  0  0  0  0
    5.4402    4.9624   41.4926 C   0  0  0  0  0  0  0  0  0  0  0  0
    6.2366    4.1739   41.8091 O   0  0  0  0  0  0  0  0  0  0  0  0
    4.1494    5.4256   42.2071 N   0  0  0  0  0  0  0  0  0  0  0  0
    3.6568    5.1037   43.4203 C   0  0  0  0  0  0  0  0  0  0  0  0
    4.0610    4.1704   44.2455 N   0  0  0  0  0  0  0  0  0  0  0  0
    3.3141    4.2565   45.4060 C   0  0  0  0  0  0  0  0  0  0  0  0
    2.3604    5.2430   45.4065 C   0  0  0  0  0  0  0  0  0  0  0  0
    1.5141    5.4724   46.4212 F   0  0  0  0  0  0  0  0  0  0  0  0
    2.3923    6.1105   43.9519 S   0  0  0  0  0  0  0  0  0  0  0  0
    6.1391    7.0880   40.3668 C   0  0  0  0  0  0  0  0  0  0  0  0
  1  2  3  0
  2  3  1  0
  3  4  1  6
  3  5  1  0
  5  6  1  0
  6  7  1  0
  7  8  1  0
  8  9  2  0
  8 10  1  0
 10 11  1  0
 11 12  2  0
 12 13  1  0
 13 14  2  0
 14 15  1  0
 14 16  1  0
  7 17  1  0
 17  3  1  0
 16 11  1  0
M  END
>  <inspiration_score>  (105) 
0.658

>  <HIPPO Pose ID>  (105) 
387957

>  <ref_pdb>  (105) 
x0414b

>  <ref_mols>  (105) 
x0407c

>  <HIPPO Compound ID>  (105) 
245476

>  <energy_score>  (105) 
-89.567194

>  <tags>  (105) 
CpKRS_FrAncestor_bulkdock_iter1,CpKRS_FrAncestor_bulkdock_iter1_cluster_best5,fragmenstein_placed,CpKRS_FrAncestor_bulkdock_iter1_exported,BulkDock Fragalysis export

>  <inchikey>  (105) 
VNZXIZTXLKWHKG-UHFFFAOYSA-N

>  <placement_batch>  (105) 
CpKRS_FrAncestor_bulkdock_iter1_cluster_best5

>  <alias>  (105) 
VNZXIZTXLKWHKG-UHFFFAOYSA-N-P3

>  <name>  (105) 
VNZXIZTXLKWHKG-UHFFFAOYSA-N-P3

>  <smiles>  (105) 
C#CC1(C)CCN(C(=O)Nc2ncc(F)s2)C1

>  <subsites>  (105) 


>  <distance_score>  (105) 
0.806779

$$$$
NGESNMZNBAETON-SNVBAGLBSA-N-P3
     RDKit          3D

 17 18  0  0  0  0  0  0  0  0999 V2000
    3.6640    9.9295   40.9666 C   0  0  0  0  0  0  0  0  0  0  0  0
    4.4685    9.7455   40.0938 C   0  0  0  0  0  0  0  0  0  0  0  0
    5.4758    9.5197   39.0416 C   0  0  0  0  0  0  0  0  0  0  0  0
    5.7887    8.0426   38.7944 C   0  0  2  0  0  0  0  0  0  0  0  0
    4.5979    7.1991   38.3022 C   0  0  0  0  0  0  0  0  0  0  0  0
    4.9697    5.8082   38.7683 C   0  0  0  0  0  0  0  0  0  0  0  0
    5.5658    6.0589   40.0357 N   0  0  0  0  0  0  0  0  0  0  0  0
    5.4492    5.2151   41.1266 C   0  0  0  0  0  0  0  0  0  0  0  0
    6.1777    4.3403   41.3776 O   0  0  0  0  0  0  0  0  0  0  0  0
    4.2411    5.7773   41.9223 N   0  0  0  0  0  0  0  0  0  0  0  0
    3.6639    5.3426   43.0699 C   0  0  0  0  0  0  0  0  0  0  0  0
    2.5403    6.4206   43.7408 S   0  0  0  0  0  0  0  0  0  0  0  0
    2.3988    5.3888   45.0994 C   0  0  0  0  0  0  0  0  0  0  0  0
    3.0844    4.2669   45.0459 N   0  0  0  0  0  0  0  0  0  0  0  0
    3.8045    4.2190   43.8539 C   0  0  0  0  0  0  0  0  0  0  0  0
    4.5783    2.9937   43.5488 C   0  0  0  0  0  0  0  0  0  0  0  0
    6.2981    7.2940   40.0306 C   0  0  0  0  0  0  0  0  0  0  0  0
  1  2  3  0
  2  3  1  0
  4  3  1  1
  4  5  1  0
  5  6  1  0
  6  7  1  0
  7  8  1  0
  8  9  2  0
  8 10  1  0
 10 11  1  0
 11 12  1  0
 12 13  1  0
 13 14  2  0
 14 15  1  0
 15 16  1  0
  7 17  1  0
 17  4  1  0
 15 11  2  0
M  END
>  <inspiration_score>  (106) 
0.517

>  <HIPPO Pose ID>  (106) 
388027

>  <ref_pdb>  (106) 
x0414b

>  <ref_mols>  (106) 
x0407c

>  <HIPPO Compound ID>  (106) 
245491

>  <energy_score>  (106) 
-73.358307

>  <tags>  (106) 
CpKRS_FrAncestor_bulkdock_iter1,CpKRS_FrAncestor_bulkdock_iter1_cluster_best5,fragmenstein_placed,CpKRS_FrAncestor_bulkdock_iter1_exported,BulkDock Fragalysis export

>  <inchikey>  (106) 
NGESNMZNBAETON-UHFFFAOYSA-N

>  <placement_batch>  (106) 
CpKRS_FrAncestor_bulkdock_iter1_cluster_best5

>  <alias>  (106) 
NGESNMZNBAETON-SNVBAGLBSA-N-P3

>  <name>  (106) 
NGESNMZNBAETON-SNVBAGLBSA-N-P3

>  <smiles>  (106) 
C#CC[C@@H]1CCN(C(=O)Nc2scnc2C)C1

>  <subsites>  (106) 


>  <distance_score>  (106) 
0.996309

$$$$
C247188-P41
     RDKit          3D

 17 18  0  0  0  0  0  0  0  0999 V2000
    6.8025    4.4530   41.0018 C   0  0  0  0  0  0  0  0  0  0  0  0
    5.6848    5.3159   40.3889 C   0  0  0  0  0  0  0  0  0  0  0  0
    4.9803    4.3863   39.4342 C   0  0  0  0  0  0  0  0  0  0  0  0
    6.2960    6.4664   39.5490 C   0  0  0  0  0  0  0  0  0  0  0  0
    5.4753    7.7600   39.5602 C   0  0  0  0  0  0  0  0  0  0  0  0
    4.0318    7.5330   39.5821 N   0  0  0  0  0  0  0  0  0  0  0  0
    3.5994    6.8180   40.7922 C   0  0  0  0  0  0  0  0  0  0  0  0
    4.6780    5.9268   41.4166 C   0  0  1  0  0  0  0  0  0  0  0  0
    4.1628    4.9072   42.4641 C   0  0  0  0  0  0  0  0  0  0  0  0
    4.3013    3.7570   42.3262 O   0  0  0  0  0  0  0  0  0  0  0  0
    3.5864    5.7127   43.6551 N   0  0  0  0  0  0  0  0  0  0  0  0
    3.1708    5.2952   44.8974 C   0  0  0  0  0  0  0  0  0  0  0  0
    3.3610    3.9807   45.2984 C   0  0  0  0  0  0  0  0  0  0  0  0
    2.8973    3.5887   46.5468 C   0  0  0  0  0  0  0  0  0  0  0  0
    2.2222    4.5077   47.3294 C   0  0  0  0  0  0  0  0  0  0  0  0
    2.1172    5.8065   46.8650 C   0  0  0  0  0  0  0  0  0  0  0  0
    2.6194    6.2247   45.6855 N   0  0  0  0  0  0  0  0  0  0  0  0
  1  2  1  0
  2  3  1  0
  2  4  1  0
  4  5  1  0
  5  6  1  0
  6  7  1  0
  7  8  1  0
  8  9  1  6
  9 10  2  0
  9 11  1  0
 11 12  1  0
 12 13  2  0
 13 14  1  0
 14 15  2  0
 15 16  1  0
 16 17  2  0
  8  2  1  0
 17 12  1  0
M  END
>  <inspiration_score>  (107) 
0.812

>  <HIPPO Pose ID>  (107) 
393340

>  <ref_pdb>  (107) 
x0602b

>  <ref_mols>  (107) 
x0606a

>  <HIPPO Compound ID>  (107) 
247188

>  <energy_score>  (107) 
-53.951417

>  <tags>  (107) 
CpKRS_FrAncestor_bulkdock_iter1,CpKRS_FrAncestor_bulkdock_iter1_cluster_best5,fragmenstein_placed,CpKRS_FrAncestor_bulkdock_iter1_exported,BulkDock Fragalysis export

>  <inchikey>  (107) 
LATLZGFYPBDXFX-UHFFFAOYSA-N

>  <placement_batch>  (107) 
CpKRS_FrAncestor_bulkdock_iter1_cluster_best5

>  <alias>  (107) 
C247188-P41

>  <name>  (107) 
C247188-P41

>  <smiles>  (107) 
CC1(C)CCNC[C@H]1C(=O)Nc1ccccn1

>  <subsites>  (107) 


>  <distance_score>  (107) 
0.68202

$$$$
C247744-P45
     RDKit          3D

 17 18  0  0  0  0  0  0  0  0999 V2000
    5.8773  -15.5602   26.8817 C   0  0  0  0  0  0  0  0  0  0  0  0
    4.7109  -15.2989   26.8680 C   0  0  0  0  0  0  0  0  0  0  0  0
    3.4518  -14.6600   26.7538 C   0  0  0  0  0  0  0  0  0  0  0  0
    2.1514  -15.0442   27.7775 S   0  0  0  0  0  0  0  0  0  0  0  0
    1.2152  -13.7758   27.1406 C   0  0  0  0  0  0  0  0  0  0  0  0
    1.8700  -13.0887   26.1460 C   0  0  0  0  0  0  0  0  0  0  0  0
    3.1911  -13.6094   25.8813 C   0  0  0  0  0  0  0  0  0  0  0  0
    4.2083  -13.0818   24.9216 C   0  0  0  0  0  0  0  0  0  0  0  0
    5.3389  -13.2698   25.1122 O   0  0  0  0  0  0  0  0  0  0  0  0
    3.5100  -12.2562   23.8422 N   0  0  0  0  0  0  0  0  0  0  0  0
    4.0425  -11.5645   22.7153 C   0  0  0  0  0  0  0  0  0  0  0  0
    4.1428  -10.0496   22.9665 C   0  0  0  0  0  0  0  0  0  0  0  0
    2.8095   -9.4739   23.2418 N   0  0  0  0  0  0  0  0  0  0  0  0
    4.8266   -9.3433   21.7919 C   0  0  0  0  0  0  0  0  0  0  0  0
    5.2590   -8.0065   22.3690 C   0  0  0  0  0  0  0  0  0  0  0  0
    5.6032   -8.2823   23.8285 C   0  0  0  0  0  0  0  0  0  0  0  0
    5.0825   -9.6885   24.1263 C   0  0  0  0  0  0  0  0  0  0  0  0
  1  2  3  0
  2  3  1  0
  3  4  1  0
  4  5  1  0
  5  6  2  0
  6  7  1  0
  7  8  1  0
  8  9  2  0
  8 10  1  0
 10 11  1  0
 11 12  1  0
 12 13  1  0
 12 14  1  0
 14 15  1  0
 15 16  1  0
 16 17  1  0
  7  3  2  0
 17 12  1  0
M  END
>  <inspiration_score>  (108) 
0.811

>  <HIPPO Pose ID>  (108) 
394821

>  <ref_pdb>  (108) 
x0602b

>  <ref_mols>  (108) 
x0502a

>  <HIPPO Compound ID>  (108) 
247744

>  <energy_score>  (108) 
-268.205976

>  <tags>  (108) 
CpKRS_FrAncestor_bulkdock_iter1,CpKRS_FrAncestor_bulkdock_iter1_cluster_best5,fragmenstein_placed,CpKRS_FrAncestor_bulkdock_iter1_exported,BulkDock Fragalysis export

>  <inchikey>  (108) 
TYFISUVMYLNZGU-UHFFFAOYSA-N

>  <placement_batch>  (108) 
CpKRS_FrAncestor_bulkdock_iter1_cluster_best5

>  <alias>  (108) 
C247744-P45

>  <name>  (108) 
C247744-P45

>  <smiles>  (108) 
C#Cc1sccc1C(=O)NCC1(N)CCCC1

>  <subsites>  (108) 


>  <distance_score>  (108) 
0.425675

$$$$
XDTAMYUYUNGPSE-UHFFFAOYSA-N-P60
     RDKit          3D

 17 18  0  0  0  0  0  0  0  0999 V2000
    0.8678  -29.9614   21.9152 C   0  0  0  0  0  0  0  0  0  0  0  0
   -0.4763  -30.2989   22.6048 C   0  0  0  0  0  0  0  0  0  0  0  0
   -1.5309  -30.4365   21.4763 C   0  0  0  0  0  0  0  0  0  0  0  0
   -0.3053  -31.7037   23.2704 C   0  0  0  0  0  0  0  0  0  0  0  0
   -1.6230  -32.1090   24.4616 S   0  0  0  0  0  0  0  0  0  0  0  0
   -1.4895  -30.6247   25.5087 C   0  0  0  0  0  0  0  0  0  0  0  0
   -0.5061  -29.5752   24.9700 C   0  0  0  0  0  0  0  0  0  0  0  0
   -0.6982  -29.1702   23.5651 N   0  0  0  0  0  0  0  0  0  0  0  0
   -1.9303  -28.3881   23.3765 C   0  0  0  0  0  0  0  0  0  0  0  0
   -1.9320  -27.0652   24.1116 C   0  0  0  0  0  0  0  0  0  0  0  0
   -1.1673  -25.9893   23.6374 C   0  0  0  0  0  0  0  0  0  0  0  0
   -1.1995  -24.7583   24.2947 C   0  0  0  0  0  0  0  0  0  0  0  0
   -1.9593  -24.5938   25.4539 C   0  0  0  0  0  0  0  0  0  0  0  0
   -2.7008  -25.6621   25.9441 C   0  0  0  0  0  0  0  0  0  0  0  0
   -3.4450  -25.5291   27.0836 O   0  0  0  0  0  0  0  0  0  0  0  0
   -2.6973  -26.8831   25.2694 C   0  0  0  0  0  0  0  0  0  0  0  0
   -3.4314  -27.9015   25.7447 F   0  0  0  0  0  0  0  0  0  0  0  0
  1  2  1  0
  2  3  1  0
  2  4  1  0
  4  5  1  0
  5  6  1  0
  6  7  1  0
  7  8  1  0
  8  9  1  0
  9 10  1  0
 10 11  2  0
 11 12  1  0
 12 13  2  0
 13 14  1  0
 14 15  1  0
 14 16  2  0
 16 17  1  0
  8  2  1  0
 16 10  1  0
M  END
>  <inspiration_score>  (109) 
0.676

>  <HIPPO Pose ID>  (109) 
405309

>  <ref_pdb>  (109) 
x0540b

>  <ref_mols>  (109) 
x0675b

>  <HIPPO Compound ID>  (109) 
252153

>  <energy_score>  (109) 
-308.803052

>  <tags>  (109) 
CpKRS_FrAncestor_bulkdock_iter1,CpKRS_FrAncestor_bulkdock_iter1_cluster_best5,fragmenstein_placed,CpKRS_FrAncestor_bulkdock_iter1_exported,BulkDock Fragalysis export

>  <inchikey>  (109) 
XDTAMYUYUNGPSE-UHFFFAOYSA-N

>  <placement_batch>  (109) 
CpKRS_FrAncestor_bulkdock_iter1_cluster_best5

>  <alias>  (109) 
XDTAMYUYUNGPSE-UHFFFAOYSA-N-P60

>  <name>  (109) 
XDTAMYUYUNGPSE-UHFFFAOYSA-N-P60

>  <smiles>  (109) 
CC1(C)CSCCN1Cc1cccc(O)c1F

>  <subsites>  (109) 


>  <distance_score>  (109) 
0.383241

$$$$
XOCMZWIYZJBVLD-UHFFFAOYSA-N-P35
     RDKit          3D

 17 18  0  0  0  0  0  0  0  0999 V2000
    5.5509   -6.8338   25.8104 C   0  0  0  0  0  0  0  0  0  0  0  0
    5.1973   -7.8332   24.7464 C   0  0  0  0  0  0  0  0  0  0  0  0
    6.1822   -8.3601   23.9144 C   0  0  0  0  0  0  0  0  0  0  0  0
    5.8831   -9.4346   23.0854 C   0  0  0  0  0  0  0  0  0  0  0  0
    4.6188  -10.0070   23.1349 C   0  0  0  0  0  0  0  0  0  0  0  0
    4.5304  -11.4599   22.9047 C   0  0  0  0  0  0  0  0  0  0  0  0
    4.3733  -11.9290   21.8532 O   0  0  0  0  0  0  0  0  0  0  0  0
    4.6886  -12.1275   24.2808 N   0  0  0  0  0  0  0  0  0  0  0  0
    4.5922  -13.5039   24.6635 C   0  0  0  0  0  0  0  0  0  0  0  0
    3.4785  -13.6324   25.6678 C   0  0  0  0  0  0  0  0  0  0  0  0
    2.3635  -12.7961   25.5445 N   0  0  0  0  0  0  0  0  0  0  0  0
    1.5319  -13.0134   26.5336 C   0  0  0  0  0  0  0  0  0  0  0  0
    1.9816  -14.2170   27.6540 S   0  0  0  0  0  0  0  0  0  0  0  0
    3.4301  -14.4750   26.7723 C   0  0  0  0  0  0  0  0  0  0  0  0
    4.3980  -15.4892   27.2467 C   0  0  0  0  0  0  0  0  0  0  0  0
    3.5927   -9.4240   23.8617 C   0  0  0  0  0  0  0  0  0  0  0  0
    3.8937   -8.3358   24.6679 C   0  0  0  0  0  0  0  0  0  0  0  0
  1  2  1  0
  2  3  2  0
  3  4  1  0
  4  5  2  0
  5  6  1  0
  6  7  2  0
  6  8  1  0
  8  9  1  0
  9 10  1  0
 10 11  1  0
 11 12  2  0
 12 13  1  0
 13 14  1  0
 14 15  1  0
  5 16  1  0
 16 17  2  0
 17  2  1  0
 14 10  2  0
M  END
>  <inspiration_score>  (110) 
0.569

>  <HIPPO Pose ID>  (110) 
409179

>  <ref_pdb>  (110) 
x0540b

>  <ref_mols>  (110) 
x0492b

>  <HIPPO Compound ID>  (110) 
328158

>  <energy_score>  (110) 
-57.877567

>  <tags>  (110) 
CpKRS_FrAncestor_bulkdock_iter1,CpKRS_FrAncestor_bulkdock_iter1_cluster_best5,fragmenstein_placed,CpKRS_FrAncestor_bulkdock_iter1_exported,BulkDock Fragalysis export

>  <inchikey>  (110) 
XOCMZWIYZJBVLD-UHFFFAOYSA-N

>  <placement_batch>  (110) 
CpKRS_FrAncestor_bulkdock_iter1_cluster_best5

>  <alias>  (110) 
XOCMZWIYZJBVLD-UHFFFAOYSA-N-P35

>  <name>  (110) 
XOCMZWIYZJBVLD-UHFFFAOYSA-N-P35

>  <smiles>  (110) 
Cc1ccc(C(=O)NCc2ncsc2C)cc1

>  <subsites>  (110) 


>  <distance_score>  (110) 
0.978158

$$$$
C340685-P16
     RDKit          3D

 18 19  0  0  0  0  0  0  0  0999 V2000
   -0.0114  -13.1563   26.5517 C   0  0  0  0  0  0  0  0  0  0  0  0
    1.3621  -13.7453   26.6168 C   0  0  0  0  0  0  0  0  0  0  0  0
    1.6620  -14.7409   27.5470 C   0  0  0  0  0  0  0  0  0  0  0  0
    2.8859  -15.4039   27.4958 C   0  0  0  0  0  0  0  0  0  0  0  0
    3.8440  -15.0668   26.5253 C   0  0  0  0  0  0  0  0  0  0  0  0
    5.1114  -15.8650   26.4931 C   0  0  0  0  0  0  0  0  0  0  0  0
    3.5885  -13.9976   25.6451 C   0  0  0  0  0  0  0  0  0  0  0  0
    4.6605  -13.4969   24.7119 C   0  0  0  0  0  0  0  0  0  0  0  0
    5.7519  -13.4640   25.1146 O   0  0  0  0  0  0  0  0  0  0  0  0
    4.0833  -13.0440   23.3626 N   0  0  0  0  0  0  0  0  0  0  0  0
    4.7388  -12.5434   22.1898 C   0  0  0  0  0  0  0  0  0  0  0  0
    4.8536  -11.0543   22.1110 C   0  0  0  0  0  0  0  0  0  0  0  0
    4.7922  -10.4856   20.8562 N   0  0  0  0  0  0  0  0  0  0  0  0
    4.9171   -9.1881   20.9604 C   0  0  0  0  0  0  0  0  0  0  0  0
    5.1598   -8.5338   22.4947 S   0  0  0  0  0  0  0  0  0  0  0  0
    5.0663  -10.1176   23.0993 C   0  0  0  0  0  0  0  0  0  0  0  0
    5.2354  -10.3299   24.5189 C   0  0  0  0  0  0  0  0  0  0  0  0
    2.3437  -13.3495   25.7003 C   0  0  0  0  0  0  0  0  0  0  0  0
  1  2  1  0
  2  3  2  0
  3  4  1  0
  4  5  2  0
  5  6  1  0
  5  7  1  0
  7  8  1  0
  8  9  2  0
  8 10  1  0
 10 11  1  0
 11 12  1  0
 12 13  1  0
 13 14  2  0
 14 15  1  0
 15 16  1  0
 16 17  1  0
  7 18  2  0
 18  2  1  0
 16 12  2  0
M  END
>  <inspiration_score>  (111) 
0.684

>  <HIPPO Pose ID>  (111) 
425852

>  <ref_pdb>  (111) 
x0419a

>  <ref_mols>  (111) 
x0426a

>  <HIPPO Compound ID>  (111) 
340685

>  <energy_score>  (111) 
-66.645849

>  <tags>  (111) 
CpKRS_FrAncestor_bulkdock_iter1,CpKRS_FrAncestor_bulkdock_iter1_cluster_best5,fragmenstein_placed,CpKRS_FrAncestor_bulkdock_iter1_exported,BulkDock Fragalysis export

>  <inchikey>  (111) 
DHIUKPDSJPEOLR-UHFFFAOYSA-N

>  <placement_batch>  (111) 
CpKRS_FrAncestor_bulkdock_iter1_cluster_best5

>  <alias>  (111) 
C340685-P16

>  <name>  (111) 
C340685-P16

>  <smiles>  (111) 
Cc1ccc(C)c(C(=O)NCc2ncsc2C)c1

>  <subsites>  (111) 


>  <distance_score>  (111) 
0.584432

$$$$
C346358-P18
     RDKit          3D

 18 18  0  0  0  0  0  0  0  0999 V2000
    5.3269   10.1561   36.0477 C   0  0  0  0  0  0  0  0  0  0  0  0
    4.6165    9.6918   37.2998 C   0  0  0  0  0  0  0  0  0  0  0  0
    4.4890   10.7327   38.1763 F   0  0  0  0  0  0  0  0  0  0  0  0
    3.3288    9.3607   36.9657 F   0  0  0  0  0  0  0  0  0  0  0  0
    5.3164    8.4904   37.9726 C   0  0  0  0  0  0  0  0  0  0  0  0
    6.2506    7.9423   37.5320 O   0  0  0  0  0  0  0  0  0  0  0  0
    4.4754    8.1847   39.2488 N   0  0  0  0  0  0  0  0  0  0  0  0
    4.5536    7.1399   40.1411 C   0  0  0  0  0  0  0  0  0  0  0  0
    5.4044    6.0605   39.9687 C   0  0  0  0  0  0  0  0  0  0  0  0
    5.3459    5.0143   40.8937 C   0  0  0  0  0  0  0  0  0  0  0  0
    4.4709    5.0875   41.9759 C   0  0  0  0  0  0  0  0  0  0  0  0
    4.4999    4.0362   42.8414 O   0  0  0  0  0  0  0  0  0  0  0  0
    3.8072    4.1979   44.0642 C   0  0  0  0  0  0  0  0  0  0  0  0
    2.4781    4.2593   43.8580 F   0  0  0  0  0  0  0  0  0  0  0  0
    4.0718    3.1434   44.8632 F   0  0  0  0  0  0  0  0  0  0  0  0
    4.2048    5.3173   44.7069 F   0  0  0  0  0  0  0  0  0  0  0  0
    3.6661    6.2152   42.0624 C   0  0  0  0  0  0  0  0  0  0  0  0
    3.6872    7.2298   41.1699 N   0  0  0  0  0  0  0  0  0  0  0  0
  1  2  1  0
  2  3  1  0
  2  4  1  0
  2  5  1  0
  5  6  2  0
  5  7  1  0
  7  8  1  0
  8  9  2  0
  9 10  1  0
 10 11  2  0
 11 12  1  0
 12 13  1  0
 13 14  1  0
 13 15  1  0
 13 16  1  0
 11 17  1  0
 17 18  2  0
 18  8  1  0
M  END
>  <inspiration_score>  (112) 
0.62

>  <HIPPO Pose ID>  (112) 
442196

>  <ref_pdb>  (112) 
x0540b

>  <ref_mols>  (112) 
x0436a

>  <HIPPO Compound ID>  (112) 
346358

>  <energy_score>  (112) 
-42.01945

>  <tags>  (112) 
CpKRS_FrAncestor_bulkdock_iter1,CpKRS_FrAncestor_bulkdock_iter1_cluster_best5,fragmenstein_placed,CpKRS_FrAncestor_bulkdock_iter1_exported,BulkDock Fragalysis export

>  <inchikey>  (112) 
NMHVMLMUZBJZBR-UHFFFAOYSA-N

>  <placement_batch>  (112) 
CpKRS_FrAncestor_bulkdock_iter1_cluster_best5

>  <alias>  (112) 
C346358-P18

>  <name>  (112) 
C346358-P18

>  <smiles>  (112) 
CC(F)(F)C(=O)Nc1ccc(OC(F)(F)F)cn1

>  <subsites>  (112) 


>  <distance_score>  (112) 
0.925217

$$$$
C346734-P42
     RDKit          3D

 18 19  0  0  0  0  0  0  0  0999 V2000
    3.2761    5.6869   39.1452 C   0  0  0  0  0  0  0  0  0  0  0  0
    4.6840    5.7230   39.7519 C   0  0  0  0  0  0  0  0  0  0  0  0
    5.4765    4.4387   39.5483 C   0  0  0  0  0  0  0  0  0  0  0  0
    5.4698    6.7357   39.0764 O   0  0  0  0  0  0  0  0  0  0  0  0
    5.0156    8.0590   39.3277 C   0  0  0  0  0  0  0  0  0  0  0  0
    4.9671    8.3317   40.8249 C   0  0  0  0  0  0  0  0  0  0  0  0
    4.1629    7.3674   41.5260 O   0  0  0  0  0  0  0  0  0  0  0  0
    4.6353    6.0344   41.2504 C   0  0  1  0  0  0  0  0  0  0  0  0
    3.9588    4.9569   42.1473 C   0  0  0  0  0  0  0  0  0  0  0  0
    3.8149    3.8370   41.8603 O   0  0  0  0  0  0  0  0  0  0  0  0
    3.6513    5.7011   43.4706 N   0  0  0  0  0  0  0  0  0  0  0  0
    3.2092    5.2173   44.6960 C   0  0  0  0  0  0  0  0  0  0  0  0
    3.3107    3.8651   45.0133 C   0  0  0  0  0  0  0  0  0  0  0  0
    2.8849    3.4152   46.2636 C   0  0  0  0  0  0  0  0  0  0  0  0
    2.2359    4.2788   47.1346 C   0  0  0  0  0  0  0  0  0  0  0  0
    2.1227    5.6225   46.8044 C   0  0  0  0  0  0  0  0  0  0  0  0
    2.7062    6.1040   45.6411 C   0  0  0  0  0  0  0  0  0  0  0  0
    2.8037    7.8017   45.3859 Cl  0  0  0  0  0  0  0  0  0  0  0  0
  1  2  1  0
  2  3  1  0
  2  4  1  0
  4  5  1  0
  5  6  1  0
  6  7  1  0
  7  8  1  0
  8  9  1  1
  9 10  2  0
  9 11  1  0
 11 12  1  0
 12 13  2  0
 13 14  1  0
 14 15  2  0
 15 16  1  0
 16 17  2  0
 17 18  1  0
  8  2  1  0
 17 12  1  0
M  END
>  <inspiration_score>  (113) 
0.685

>  <HIPPO Pose ID>  (113) 
443266

>  <ref_pdb>  (113) 
x0540b

>  <ref_mols>  (113) 
x0606b

>  <HIPPO Compound ID>  (113) 
346734

>  <energy_score>  (113) 
-55.782889

>  <tags>  (113) 
CpKRS_FrAncestor_bulkdock_iter1,CpKRS_FrAncestor_bulkdock_iter1_cluster_best5,fragmenstein_placed,CpKRS_FrAncestor_bulkdock_iter1_exported,BulkDock Fragalysis export

>  <inchikey>  (113) 
IMNNXLQKZRMHIS-UHFFFAOYSA-N

>  <placement_batch>  (113) 
CpKRS_FrAncestor_bulkdock_iter1_cluster_best5

>  <alias>  (113) 
C346734-P42

>  <name>  (113) 
C346734-P42

>  <smiles>  (113) 
CC1(C)OCCO[C@H]1C(=O)Nc1ccccc1Cl

>  <subsites>  (113) 


>  <distance_score>  (113) 
0.811466

$$$$
C346736-P42
     RDKit          3D

 18 19  0  0  0  0  0  0  0  0999 V2000
    1.7126    4.1991   47.7916 C   0  0  0  0  0  0  0  0  0  0  0  0
    2.4236    4.6307   46.5661 C   0  0  0  0  0  0  0  0  0  0  0  0
    3.0899    3.6845   45.7937 C   0  0  0  0  0  0  0  0  0  0  0  0
    3.5723    4.0361   44.5434 C   0  0  0  0  0  0  0  0  0  0  0  0
    3.4552    5.3546   44.1044 C   0  0  0  0  0  0  0  0  0  0  0  0
    3.9324    5.7287   42.8564 N   0  0  0  0  0  0  0  0  0  0  0  0
    4.8383    4.9624   41.8512 C   0  0  0  0  0  0  0  0  0  0  0  0
    5.2549    3.8736   41.8881 O   0  0  0  0  0  0  0  0  0  0  0  0
    5.2021    5.9955   40.7684 C   0  0  1  0  0  0  0  0  0  0  0  0
    5.5193    5.3094   39.4519 C   0  0  0  0  0  0  0  0  0  0  0  0
    5.9294    6.3064   38.5050 O   0  0  0  0  0  0  0  0  0  0  0  0
    4.8814    7.2502   38.2761 C   0  0  0  0  0  0  0  0  0  0  0  0
    4.4826    8.0027   39.5737 C   0  0  0  0  0  0  0  0  0  0  0  0
    5.6146    8.9446   40.0156 C   0  0  0  0  0  0  0  0  0  0  0  0
    3.2295    8.8519   39.2973 C   0  0  0  0  0  0  0  0  0  0  0  0
    4.1359    7.0547   40.6695 N   0  0  0  0  0  0  0  0  0  0  0  0
    2.9248    6.3311   44.9425 C   0  0  0  0  0  0  0  0  0  0  0  0
    2.3983    5.9664   46.1733 C   0  0  0  0  0  0  0  0  0  0  0  0
  1  2  1  0
  2  3  2  0
  3  4  1  0
  4  5  2  0
  5  6  1  0
  6  7  1  0
  7  8  2  0
  9  7  1  1
  9 10  1  0
 10 11  1  0
 11 12  1  0
 12 13  1  0
 13 14  1  0
 13 15  1  0
 13 16  1  0
  5 17  1  0
 17 18  2  0
 18  2  1  0
 16  9  1  0
M  END
>  <inspiration_score>  (114) 
0.613

>  <HIPPO Pose ID>  (114) 
443272

>  <ref_pdb>  (114) 
x0540b

>  <ref_mols>  (114) 
x0606b

>  <HIPPO Compound ID>  (114) 
346736

>  <energy_score>  (114) 
-56.854171

>  <tags>  (114) 
CpKRS_FrAncestor_bulkdock_iter1,CpKRS_FrAncestor_bulkdock_iter1_cluster_best5,fragmenstein_placed,CpKRS_FrAncestor_bulkdock_iter1_exported,BulkDock Fragalysis export

>  <inchikey>  (114) 
ZNIVWBRQZQYSJO-UHFFFAOYSA-N

>  <placement_batch>  (114) 
CpKRS_FrAncestor_bulkdock_iter1_cluster_best5

>  <alias>  (114) 
C346736-P42

>  <name>  (114) 
C346736-P42

>  <smiles>  (114) 
Cc1ccc(NC(=O)[C@H]2COCC(C)(C)N2)cc1

>  <subsites>  (114) 


>  <distance_score>  (114) 
0.937927

$$$$
C347061-P34
     RDKit          3D

 18 19  0  0  0  0  0  0  0  0999 V2000
    3.6075  -15.9382   28.6274 C   0  0  0  0  0  0  0  0  0  0  0  0
    3.1543  -14.9724   27.5861 C   0  0  0  0  0  0  0  0  0  0  0  0
    1.8821  -14.4138   27.6645 C   0  0  0  0  0  0  0  0  0  0  0  0
    1.4913  -13.4335   26.7598 C   0  0  0  0  0  0  0  0  0  0  0  0
    2.3686  -12.9735   25.7611 C   0  0  0  0  0  0  0  0  0  0  0  0
    1.9108  -11.7652   24.9878 C   0  0  0  0  0  0  0  0  0  0  0  0
    3.6303  -13.6086   25.6128 C   0  0  0  0  0  0  0  0  0  0  0  0
    4.6943  -13.1752   24.6319 C   0  0  0  0  0  0  0  0  0  0  0  0
    5.7902  -13.2281   25.0144 O   0  0  0  0  0  0  0  0  0  0  0  0
    4.1308  -12.6481   23.3173 N   0  0  0  0  0  0  0  0  0  0  0  0
    4.7769  -11.9873   22.2291 C   0  0  0  0  0  0  0  0  0  0  0  0
    5.0631  -10.5662   22.5943 C   0  0  0  0  0  0  0  0  0  0  0  0
    5.6829  -10.0554   23.7164 C   0  0  0  0  0  0  0  0  0  0  0  0
    5.8316   -8.6443   23.6941 C   0  0  0  0  0  0  0  0  0  0  0  0
    5.3354   -8.1233   22.5277 C   0  0  0  0  0  0  0  0  0  0  0  0
    4.6851   -9.3142   21.5096 S   0  0  0  0  0  0  0  0  0  0  0  0
    4.0317  -14.5798   26.5708 C   0  0  0  0  0  0  0  0  0  0  0  0
    5.2684  -15.2865   26.4913 N   0  0  0  0  0  0  0  0  0  0  0  0
  1  2  1  0
  2  3  2  0
  3  4  1  0
  4  5  2  0
  5  6  1  0
  5  7  1  0
  7  8  1  0
  8  9  2  0
  8 10  1  0
 10 11  1  0
 11 12  1  0
 12 13  2  0
 13 14  1  0
 14 15  2  0
 15 16  1  0
  7 17  2  0
 17 18  1  0
 17  2  1  0
 16 12  1  0
M  END
>  <inspiration_score>  (115) 
0.748

>  <HIPPO Pose ID>  (115) 
444136

>  <ref_pdb>  (115) 
x0540b

>  <ref_mols>  (115) 
x0492a

>  <HIPPO Compound ID>  (115) 
347061

>  <energy_score>  (115) 
-49.486105

>  <tags>  (115) 
CpKRS_FrAncestor_bulkdock_iter1,CpKRS_FrAncestor_bulkdock_iter1_cluster_best5,fragmenstein_placed,CpKRS_FrAncestor_bulkdock_iter1_exported,BulkDock Fragalysis export

>  <inchikey>  (115) 
MZBCWQUDYMOBGL-UHFFFAOYSA-N

>  <placement_batch>  (115) 
CpKRS_FrAncestor_bulkdock_iter1_cluster_best5

>  <alias>  (115) 
C347061-P34

>  <name>  (115) 
C347061-P34

>  <smiles>  (115) 
Cc1ccc(C)c(C(=O)NCc2cccs2)c1N

>  <subsites>  (115) 


>  <distance_score>  (115) 
0.482946

$$$$
C349185-P10
     RDKit          3D

 18 19  0  0  0  0  0  0  0  0999 V2000
    4.1926  -15.0703   24.1756 O   0  0  0  0  0  0  0  0  0  0  0  0
    3.8711  -14.2752   24.9667 C   0  0  0  0  0  0  0  0  0  0  0  0
    3.9966  -12.7306   24.9466 N   0  0  0  0  0  0  0  0  0  0  0  0
    4.4388  -11.8769   23.9489 C   0  0  0  0  0  0  0  0  0  0  0  0
    4.7330  -12.3621   22.6821 C   0  0  0  0  0  0  0  0  0  0  0  0
    5.1160  -11.4767   21.6830 C   0  0  0  0  0  0  0  0  0  0  0  0
    5.2437  -10.1235   21.9505 C   0  0  0  0  0  0  0  0  0  0  0  0
    5.6025   -9.3020   20.9256 O   0  0  0  0  0  0  0  0  0  0  0  0
    4.9904   -9.6414   23.2261 C   0  0  0  0  0  0  0  0  0  0  0  0
    5.2284   -7.9766   23.5813 Cl  0  0  0  0  0  0  0  0  0  0  0  0
    4.5472  -10.5099   24.2179 C   0  0  0  0  0  0  0  0  0  0  0  0
    3.2265  -14.6677   26.2487 C   0  0  0  0  0  0  0  0  0  0  0  0
    2.0555  -14.1559   26.6583 C   0  0  0  0  0  0  0  0  0  0  0  0
    1.1012  -13.0045   25.7916 Cl  0  0  0  0  0  0  0  0  0  0  0  0
    1.4436  -14.6044   27.9363 C   0  0  0  0  0  0  0  0  0  0  0  0
    2.4357  -15.3452   28.8099 C   0  0  0  0  0  0  0  0  0  0  0  0
    3.1107  -16.3376   28.0507 O   0  0  0  0  0  0  0  0  0  0  0  0
    3.9202  -15.7709   27.0010 C   0  0  0  0  0  0  0  0  0  0  0  0
  1  2  2  0
  2  3  1  0
  3  4  1  0
  4  5  2  0
  5  6  1  0
  6  7  2  0
  7  8  1  0
  7  9  1  0
  9 10  1  0
  9 11  2  0
  2 12  1  0
 12 13  2  0
 13 14  1  0
 13 15  1  0
 15 16  1  0
 16 17  1  0
 17 18  1  0
 11  4  1  0
 18 12  1  0
M  END
>  <inspiration_score>  (116) 
0.602

>  <HIPPO Pose ID>  (116) 
449807

>  <ref_pdb>  (116) 
x0540b

>  <ref_mols>  (116) 
x0419c

>  <HIPPO Compound ID>  (116) 
349185

>  <energy_score>  (116) 
-56.882412

>  <tags>  (116) 
CpKRS_FrAncestor_bulkdock_iter1,CpKRS_FrAncestor_bulkdock_iter1_cluster_best5,fragmenstein_placed,CpKRS_FrAncestor_bulkdock_iter1_exported,BulkDock Fragalysis export

>  <inchikey>  (116) 
ILDPNJGTUPWUDT-UHFFFAOYSA-N

>  <placement_batch>  (116) 
CpKRS_FrAncestor_bulkdock_iter1_cluster_best5

>  <alias>  (116) 
C349185-P10

>  <name>  (116) 
C349185-P10

>  <smiles>  (116) 
O=C(Nc1ccc(O)c(Cl)c1)C1=C(Cl)CCOC1

>  <subsites>  (116) 


>  <distance_score>  (116) 
0.50016

$$$$
XVFSRXBNYVGJMA-UHFFFAOYSA-N-P58
     RDKit          3D

 18 19  0  0  0  0  0  0  0  0999 V2000
    5.6185   -7.5833   24.0812 C   0  0  0  0  0  0  0  0  0  0  0  0
    4.8788   -8.8563   23.7819 C   0  0  0  0  0  0  0  0  0  0  0  0
    4.1148   -9.4599   24.7736 C   0  0  0  0  0  0  0  0  0  0  0  0
    3.5492  -10.7267   24.5738 C   0  0  0  0  0  0  0  0  0  0  0  0
    3.7777  -11.4553   23.4010 C   0  0  0  0  0  0  0  0  0  0  0  0
    3.2263  -12.7327   23.1586 N   0  0  0  0  0  0  0  0  0  0  0  0
    3.0714  -13.4704   24.2966 N   0  0  0  0  0  0  0  0  0  0  0  0
    4.1288  -14.0532   25.2707 C   0  0  0  0  0  0  0  0  0  0  0  0
    5.2900  -13.9267   25.2916 O   0  0  0  0  0  0  0  0  0  0  0  0
    3.4049  -14.7951   26.3557 C   0  0  0  0  0  0  0  0  0  0  0  0
    4.0588  -15.7877   26.9800 C   0  0  0  0  0  0  0  0  0  0  0  0
    3.4909  -16.5040   28.1607 C   0  0  0  0  0  0  0  0  0  0  0  0
    2.1296  -16.1677   28.4434 O   0  0  0  0  0  0  0  0  0  0  0  0
    1.8762  -14.7757   28.3180 C   0  0  0  0  0  0  0  0  0  0  0  0
    2.0738  -14.3366   26.8717 C   0  0  0  0  0  0  0  0  0  0  0  0
    4.4650  -10.8107   22.3842 C   0  0  0  0  0  0  0  0  0  0  0  0
    4.9720   -9.5103   22.5498 C   0  0  0  0  0  0  0  0  0  0  0  0
    5.6404   -8.9015   21.3745 C   0  0  0  0  0  0  0  0  0  0  0  0
  1  2  1  0
  2  3  2  0
  3  4  1  0
  4  5  2  0
  5  6  1  0
  6  7  1  0
  7  8  1  0
  8  9  2  0
  8 10  1  0
 10 11  2  0
 11 12  1  0
 12 13  1  0
 13 14  1  0
 14 15  1  0
  5 16  1  0
 16 17  2  0
 17 18  1  0
 17  2  1  0
 15 10  1  0
M  END
>  <inspiration_score>  (117) 
0.779

>  <HIPPO Pose ID>  (117) 
460163

>  <ref_pdb>  (117) 
x0419b

>  <ref_mols>  (117) 
x0654c

>  <HIPPO Compound ID>  (117) 
352478

>  <energy_score>  (117) 
-32.189428

>  <tags>  (117) 
CpKRS_FrAncestor_bulkdock_iter1,CpKRS_FrAncestor_bulkdock_iter1_cluster_best5,fragmenstein_placed,CpKRS_FrAncestor_bulkdock_iter1_exported,BulkDock Fragalysis export

>  <inchikey>  (117) 
XVFSRXBNYVGJMA-UHFFFAOYSA-N

>  <placement_batch>  (117) 
CpKRS_FrAncestor_bulkdock_iter1_cluster_best5

>  <alias>  (117) 
XVFSRXBNYVGJMA-UHFFFAOYSA-N-P58

>  <name>  (117) 
XVFSRXBNYVGJMA-UHFFFAOYSA-N-P58

>  <smiles>  (117) 
Cc1ccc(NNC(=O)C2=CCOCC2)cc1C

>  <subsites>  (117) 


>  <distance_score>  (117) 
0.598791

$$$$
C354105-P58
     RDKit          3D

 18 19  0  0  0  0  0  0  0  0999 V2000
    5.0760  -11.3942   21.5040 C   0  0  0  0  0  0  0  0  0  0  0  0
    4.6955  -10.5647   22.6735 C   0  0  0  0  0  0  0  0  0  0  0  0
    5.3987   -9.3678   22.8901 C   0  0  0  0  0  0  0  0  0  0  0  0
    5.1165   -8.5866   23.9977 C   0  0  0  0  0  0  0  0  0  0  0  0
    6.0074   -7.1538   24.2886 Cl  0  0  0  0  0  0  0  0  0  0  0  0
    4.1163   -8.9694   24.8772 C   0  0  0  0  0  0  0  0  0  0  0  0
    3.4265  -10.1655   24.6632 C   0  0  0  0  0  0  0  0  0  0  0  0
    3.7189  -10.9969   23.5767 C   0  0  0  0  0  0  0  0  0  0  0  0
    2.9819  -12.3104   23.4190 C   0  0  0  0  0  0  0  0  0  0  0  0
    3.0152  -13.0487   24.6383 N   0  0  0  0  0  0  0  0  0  0  0  0
    4.1040  -13.9845   25.2172 C   0  0  0  0  0  0  0  0  0  0  0  0
    5.1731  -14.2352   24.8230 O   0  0  0  0  0  0  0  0  0  0  0  0
    3.5340  -14.4865   26.5524 C   0  0  2  0  0  0  0  0  0  0  0  0
    3.8750  -15.9413   26.8303 C   0  0  0  0  0  0  0  0  0  0  0  0
    3.4664  -16.2674   28.2651 C   0  0  0  0  0  0  0  0  0  0  0  0
    2.2090  -15.5537   28.6655 C   0  0  0  0  0  0  0  0  0  0  0  0
    1.6206  -14.6595   27.8679 C   0  0  0  0  0  0  0  0  0  0  0  0
    2.1147  -14.2528   26.6620 O   0  0  0  0  0  0  0  0  0  0  0  0
  1  2  1  0
  2  3  2  0
  3  4  1  0
  4  5  1  0
  4  6  2  0
  6  7  1  0
  7  8  2  0
  8  9  1  0
  9 10  1  0
 10 11  1  0
 11 12  2  0
 13 11  1  6
 13 14  1  0
 14 15  1  0
 15 16  1  0
 16 17  2  0
 17 18  1  0
  8  2  1  0
 18 13  1  0
M  END
>  <inspiration_score>  (118) 
0.691

>  <HIPPO Pose ID>  (118) 
465815

>  <ref_pdb>  (118) 
x0426b

>  <ref_mols>  (118) 
x0654c

>  <HIPPO Compound ID>  (118) 
354105

>  <energy_score>  (118) 
-31.297898

>  <tags>  (118) 
CpKRS_FrAncestor_bulkdock_iter1,CpKRS_FrAncestor_bulkdock_iter1_cluster_best5,fragmenstein_placed,CpKRS_FrAncestor_bulkdock_iter1_exported,BulkDock Fragalysis export

>  <inchikey>  (118) 
XVKFWGHJCJBPQI-UHFFFAOYSA-N

>  <placement_batch>  (118) 
CpKRS_FrAncestor_bulkdock_iter1_cluster_best5

>  <alias>  (118) 
C354105-P58

>  <name>  (118) 
C354105-P58

>  <smiles>  (118) 
Cc1cc(Cl)ccc1CNC(=O)[C@@H]1CCC=CO1

>  <subsites>  (118) 


>  <distance_score>  (118) 
0.578993

$$$$
MCYCQQCARCJWPK-UHFFFAOYSA-N-P58
     RDKit          3D

 18 19  0  0  0  0  0  0  0  0999 V2000
    5.7153   -7.5636   23.9717 C   0  0  0  0  0  0  0  0  0  0  0  0
    5.0514   -8.8557   23.6065 C   0  0  0  0  0  0  0  0  0  0  0  0
    5.6089   -9.6776   22.6284 C   0  0  0  0  0  0  0  0  0  0  0  0
    5.0620  -10.9345   22.3571 C   0  0  0  0  0  0  0  0  0  0  0  0
    3.9122  -11.3806   23.0108 C   0  0  0  0  0  0  0  0  0  0  0  0
    3.4379  -12.6903   22.7513 N   0  0  0  0  0  0  0  0  0  0  0  0
    3.2410  -13.4112   23.9113 N   0  0  0  0  0  0  0  0  0  0  0  0
    4.2522  -13.8693   24.9977 C   0  0  0  0  0  0  0  0  0  0  0  0
    5.3924  -13.6406   25.1157 O   0  0  0  0  0  0  0  0  0  0  0  0
    3.5019  -14.6411   26.0494 C   0  0  0  0  0  0  0  0  0  0  0  0
    4.1367  -15.6414   26.6844 C   0  0  0  0  0  0  0  0  0  0  0  0
    3.5215  -16.3949   27.8239 C   0  0  0  0  0  0  0  0  0  0  0  0
    2.1481  -16.0677   28.0610 O   0  0  0  0  0  0  0  0  0  0  0  0
    1.9044  -14.6707   27.9566 C   0  0  0  0  0  0  0  0  0  0  0  0
    2.1480  -14.2073   26.5229 C   0  0  0  0  0  0  0  0  0  0  0  0
    3.2476  -10.4784   23.8664 C   0  0  0  0  0  0  0  0  0  0  0  0
    1.8852  -10.7803   24.4205 C   0  0  0  0  0  0  0  0  0  0  0  0
    3.8541   -9.2519   24.2044 C   0  0  0  0  0  0  0  0  0  0  0  0
  1  2  1  0
  2  3  2  0
  3  4  1  0
  4  5  2  0
  5  6  1  0
  6  7  1  0
  7  8  1  0
  8  9  2  0
  8 10  1  0
 10 11  2  0
 11 12  1  0
 12 13  1  0
 13 14  1  0
 14 15  1  0
  5 16  1  0
 16 17  1  0
 16 18  2  0
 18  2  1  0
 15 10  1  0
M  END
>  <inspiration_score>  (119) 
0.746

>  <HIPPO Pose ID>  (119) 
471239

>  <ref_pdb>  (119) 
x0654b

>  <ref_mols>  (119) 
x0654c

>  <HIPPO Compound ID>  (119) 
355433

>  <energy_score>  (119) 
-37.452601

>  <tags>  (119) 
CpKRS_FrAncestor_bulkdock_iter1,CpKRS_FrAncestor_bulkdock_iter1_cluster_best5,fragmenstein_placed,CpKRS_FrAncestor_bulkdock_iter1_exported,BulkDock Fragalysis export

>  <inchikey>  (119) 
MCYCQQCARCJWPK-UHFFFAOYSA-N

>  <placement_batch>  (119) 
CpKRS_FrAncestor_bulkdock_iter1_cluster_best5

>  <alias>  (119) 
MCYCQQCARCJWPK-UHFFFAOYSA-N-P58

>  <name>  (119) 
MCYCQQCARCJWPK-UHFFFAOYSA-N-P58

>  <smiles>  (119) 
Cc1ccc(NNC(=O)C2=CCOCC2)c(C)c1

>  <subsites>  (119) 


>  <distance_score>  (119) 
0.570966

$$$$
JPGRQVZWKVKGQQ-UHFFFAOYSA-N-P58
     RDKit          3D

 18 19  0  0  0  0  0  0  0  0999 V2000
    5.7391  -14.1011   25.1236 O   0  0  0  0  0  0  0  0  0  0  0  0
    4.5776  -14.0296   25.1449 C   0  0  0  0  0  0  0  0  0  0  0  0
    3.5985  -13.4105   24.1342 N   0  0  0  0  0  0  0  0  0  0  0  0
    3.8448  -12.6700   22.9372 C   0  0  0  0  0  0  0  0  0  0  0  0
    4.3136  -11.2669   23.2012 C   0  0  0  0  0  0  0  0  0  0  0  0
    5.2148  -10.6821   22.3166 C   0  0  0  0  0  0  0  0  0  0  0  0
    5.7599   -9.4563   22.4713 N   0  0  0  0  0  0  0  0  0  0  0  0
    5.3820   -8.7792   23.5705 C   0  0  0  0  0  0  0  0  0  0  0  0
    6.1889   -7.2897   23.8003 Cl  0  0  0  0  0  0  0  0  0  0  0  0
    4.4285   -9.2225   24.4688 C   0  0  0  0  0  0  0  0  0  0  0  0
    3.9082   -8.2179   25.7548 Cl  0  0  0  0  0  0  0  0  0  0  0  0
    3.8837  -10.4898   24.2817 C   0  0  0  0  0  0  0  0  0  0  0  0
    3.7227  -14.5880   26.2592 C   0  0  0  0  0  0  0  0  0  0  0  0
    4.2945  -15.4237   27.1424 C   0  0  0  0  0  0  0  0  0  0  0  0
    3.5288  -16.0646   28.2485 C   0  0  0  0  0  0  0  0  0  0  0  0
    2.0378  -15.8226   28.0966 C   0  0  0  0  0  0  0  0  0  0  0  0
    1.7776  -14.4245   27.5778 C   0  0  0  0  0  0  0  0  0  0  0  0
    2.3842  -14.2140   26.3033 O   0  0  0  0  0  0  0  0  0  0  0  0
  1  2  2  0
  2  3  1  0
  3  4  1  0
  4  5  1  0
  5  6  2  0
  6  7  1  0
  7  8  2  0
  8  9  1  0
  8 10  1  0
 10 11  1  0
 10 12  2  0
  2 13  1  0
 13 14  2  0
 14 15  1  0
 15 16  1  0
 16 17  1  0
 17 18  1  0
 12  5  1  0
 18 13  1  0
M  END
>  <inspiration_score>  (120) 
0.698

>  <HIPPO Pose ID>  (120) 
474992

>  <ref_pdb>  (120) 
x0654b

>  <ref_mols>  (120) 
x0654c

>  <HIPPO Compound ID>  (120) 
356478

>  <energy_score>  (120) 
-31.300309

>  <tags>  (120) 
CpKRS_FrAncestor_bulkdock_iter1,CpKRS_FrAncestor_bulkdock_iter1_cluster_best5,fragmenstein_placed,CpKRS_FrAncestor_bulkdock_iter1_exported,BulkDock Fragalysis export

>  <inchikey>  (120) 
JPGRQVZWKVKGQQ-UHFFFAOYSA-N

>  <placement_batch>  (120) 
CpKRS_FrAncestor_bulkdock_iter1_cluster_best5

>  <alias>  (120) 
JPGRQVZWKVKGQQ-UHFFFAOYSA-N-P58

>  <name>  (120) 
JPGRQVZWKVKGQQ-UHFFFAOYSA-N-P58

>  <smiles>  (120) 
O=C(NCc1cnc(Cl)c(Cl)c1)C1=CCCCO1

>  <subsites>  (120) 


>  <distance_score>  (120) 
0.432633

$$$$
IPKSUNWOJGYGFW-UHFFFAOYSA-N-P41
     RDKit          3D

 18 19  0  0  0  0  0  0  0  0999 V2000
    1.5834    7.8309   47.0850 C   0  0  0  0  0  0  0  0  0  0  0  0
    1.1816    6.3816   47.2648 C   0  0  0  0  0  0  0  0  0  0  0  0
    2.1082    5.4136   46.5843 C   0  0  0  0  0  0  0  0  0  0  0  0
    2.4583    4.2180   47.1925 C   0  0  0  0  0  0  0  0  0  0  0  0
    3.2947    3.3468   46.5092 C   0  0  0  0  0  0  0  0  0  0  0  0
    3.7293    3.6763   45.2319 C   0  0  0  0  0  0  0  0  0  0  0  0
    3.3123    4.8740   44.6855 C   0  0  0  0  0  0  0  0  0  0  0  0
    3.7382    5.3047   43.4525 N   0  0  0  0  0  0  0  0  0  0  0  0
    4.6500    4.6282   42.4194 C   0  0  0  0  0  0  0  0  0  0  0  0
    5.2490    3.6304   42.4791 O   0  0  0  0  0  0  0  0  0  0  0  0
    4.8210    5.5132   41.1906 C   0  0  0  0  0  0  0  0  0  0  0  0
    4.4796    6.8030   40.9804 C   0  0  0  0  0  0  0  0  0  0  0  0
    3.6704    7.8461   42.0950 Cl  0  0  0  0  0  0  0  0  0  0  0  0
    4.8877    7.5289   39.7269 C   0  0  0  0  0  0  0  0  0  0  0  0
    6.0918    6.8539   39.1011 C   0  0  0  0  0  0  0  0  0  0  0  0
    5.7899    5.4831   38.9111 O   0  0  0  0  0  0  0  0  0  0  0  0
    5.6288    4.7716   40.1367 C   0  0  0  0  0  0  0  0  0  0  0  0
    2.5268    5.7348   45.3428 N   0  0  0  0  0  0  0  0  0  0  0  0
  1  2  1  0
  2  3  1  0
  3  4  2  0
  4  5  1  0
  5  6  2  0
  6  7  1  0
  7  8  1  0
  8  9  1  0
  9 10  2  0
  9 11  1  0
 11 12  2  0
 12 13  1  0
 12 14  1  0
 14 15  1  0
 15 16  1  0
 16 17  1  0
  7 18  2  0
 18  3  1  0
 17 11  1  0
M  END
>  <inspiration_score>  (121) 
0.777

>  <HIPPO Pose ID>  (121) 
476108

>  <ref_pdb>  (121) 
x0654b

>  <ref_mols>  (121) 
x0606a

>  <HIPPO Compound ID>  (121) 
356857

>  <energy_score>  (121) 
-53.118494

>  <tags>  (121) 
CpKRS_FrAncestor_bulkdock_iter1,CpKRS_FrAncestor_bulkdock_iter1_cluster_best5,fragmenstein_placed,CpKRS_FrAncestor_bulkdock_iter1_exported,BulkDock Fragalysis export

>  <inchikey>  (121) 
IPKSUNWOJGYGFW-UHFFFAOYSA-N

>  <placement_batch>  (121) 
CpKRS_FrAncestor_bulkdock_iter1_cluster_best5

>  <alias>  (121) 
IPKSUNWOJGYGFW-UHFFFAOYSA-N-P41

>  <name>  (121) 
IPKSUNWOJGYGFW-UHFFFAOYSA-N-P41

>  <smiles>  (121) 
CCc1cccc(NC(=O)C2=C(Cl)CCOC2)n1

>  <subsites>  (121) 


>  <distance_score>  (121) 
0.330117

$$$$
LBFZBLJASMZUNK-UHFFFAOYSA-N-P41
     RDKit          3D

 18 19  0  0  0  0  0  0  0  0999 V2000
    6.9516    4.1072   41.4955 C   0  0  0  0  0  0  0  0  0  0  0  0
    6.3780    5.4185   41.4901 O   0  0  0  0  0  0  0  0  0  0  0  0
    5.0011    5.5369   41.0620 C   0  0  1  0  0  0  0  0  0  0  0  0
    4.2159    4.6292   42.1075 C   0  0  0  0  0  0  0  0  0  0  0  0
    4.0313    3.4898   41.9183 O   0  0  0  0  0  0  0  0  0  0  0  0
    3.8926    5.5126   43.3553 N   0  0  0  0  0  0  0  0  0  0  0  0
    3.3883    5.1643   44.5958 C   0  0  0  0  0  0  0  0  0  0  0  0
    3.4639    3.8759   45.1033 C   0  0  0  0  0  0  0  0  0  0  0  0
    2.9564    3.6095   46.3769 C   0  0  0  0  0  0  0  0  0  0  0  0
    2.3056    4.6093   47.1009 C   0  0  0  0  0  0  0  0  0  0  0  0
    2.2296    5.9068   46.5902 C   0  0  0  0  0  0  0  0  0  0  0  0
    1.4615    6.9982   47.2716 C   0  0  0  0  0  0  0  0  0  0  0  0
    2.8317    6.1829   45.3606 C   0  0  0  0  0  0  0  0  0  0  0  0
    4.5290    7.0323   41.1157 C   0  0  0  0  0  0  0  0  0  0  0  0
    4.6590    7.8701   39.8433 C   0  0  0  0  0  0  0  0  0  0  0  0
    6.0014    7.6999   39.1764 C   0  0  0  0  0  0  0  0  0  0  0  0
    6.2631    6.0054   38.6365 S   0  0  0  0  0  0  0  0  0  0  0  0
    4.9841    5.1073   39.6054 C   0  0  0  0  0  0  0  0  0  0  0  0
  1  2  1  0
  3  2  1  1
  3  4  1  0
  4  5  2  0
  4  6  1  0
  6  7  1  0
  7  8  2  0
  8  9  1  0
  9 10  2  0
 10 11  1  0
 11 12  1  0
 11 13  2  0
  3 14  1  0
 14 15  1  0
 15 16  1  0
 16 17  1  0
 17 18  1  0
 18  3  1  0
 13  7  1  0
M  END
>  <inspiration_score>  (122) 
0.639

>  <HIPPO Pose ID>  (122) 
486739

>  <ref_pdb>  (122) 
x0419a

>  <ref_mols>  (122) 
x0606a

>  <HIPPO Compound ID>  (122) 
363259

>  <energy_score>  (122) 
-116.199498

>  <tags>  (122) 
CpKRS_FrAncestor_bulkdock_iter1,CpKRS_FrAncestor_bulkdock_iter1_cluster_best5,fragmenstein_placed,CpKRS_FrAncestor_bulkdock_iter1_exported,BulkDock Fragalysis export

>  <inchikey>  (122) 
LBFZBLJASMZUNK-UHFFFAOYSA-N

>  <placement_batch>  (122) 
CpKRS_FrAncestor_bulkdock_iter1_cluster_best5

>  <alias>  (122) 
LBFZBLJASMZUNK-UHFFFAOYSA-N-P41

>  <name>  (122) 
LBFZBLJASMZUNK-UHFFFAOYSA-N-P41

>  <smiles>  (122) 
COC1(C(=O)Nc2cccc(C)c2)CCCSC1

>  <subsites>  (122) 


>  <distance_score>  (122) 
0.567156

$$$$
C254677-P56
     RDKit          3D

 18 19  0  0  0  0  0  0  0  0999 V2000
    6.2410   -6.5154   24.7109 C   0  0  0  0  0  0  0  0  0  0  0  0
    5.7154   -7.4866   24.2440 C   0  0  0  0  0  0  0  0  0  0  0  0
    5.0959   -8.6965   23.8160 C   0  0  0  0  0  0  0  0  0  0  0  0
    5.5214   -9.3458   22.6603 C   0  0  0  0  0  0  0  0  0  0  0  0
    5.0059  -10.6026   22.3409 C   0  0  0  0  0  0  0  0  0  0  0  0
    4.0652  -11.2223   23.1740 C   0  0  0  0  0  0  0  0  0  0  0  0
    3.6002  -12.6216   22.8625 C   0  0  0  0  0  0  0  0  0  0  0  0
    3.3855  -13.3994   24.0435 N   0  0  0  0  0  0  0  0  0  0  0  0
    4.3927  -14.0572   25.0047 C   0  0  0  0  0  0  0  0  0  0  0  0
    5.5531  -14.1347   24.9450 O   0  0  0  0  0  0  0  0  0  0  0  0
    3.5707  -14.6519   26.1216 C   0  0  0  0  0  0  0  0  0  0  0  0
    4.1950  -15.3994   27.0466 C   0  0  0  0  0  0  0  0  0  0  0  0
    3.5798  -16.0281   28.1061 O   0  0  0  0  0  0  0  0  0  0  0  0
    2.1545  -16.0197   27.9474 C   0  0  0  0  0  0  0  0  0  0  0  0
    1.6587  -14.6739   27.4456 C   0  0  0  0  0  0  0  0  0  0  0  0
    2.2051  -14.3775   26.1569 O   0  0  0  0  0  0  0  0  0  0  0  0
    3.5814  -10.5165   24.2842 C   0  0  0  0  0  0  0  0  0  0  0  0
    4.0985   -9.2626   24.6072 C   0  0  0  0  0  0  0  0  0  0  0  0
  1  2  3  0
  2  3  1  0
  3  4  2  0
  4  5  1  0
  5  6  2  0
  6  7  1  0
  7  8  1  0
  8  9  1  0
  9 10  2  0
  9 11  1  0
 11 12  2  0
 12 13  1  0
 13 14  1  0
 14 15  1  0
 15 16  1  0
  6 17  1  0
 17 18  2  0
 18  3  1  0
 16 11  1  0
M  END
>  <inspiration_score>  (123) 
0.744

>  <HIPPO Pose ID>  (123) 
493031

>  <ref_pdb>  (123) 
x0540a

>  <ref_mols>  (123) 
x0654a

>  <HIPPO Compound ID>  (123) 
254677

>  <energy_score>  (123) 
-42.810582

>  <tags>  (123) 
CpKRS_FrAncestor_bulkdock_iter1,CpKRS_FrAncestor_bulkdock_iter1_cluster_best5,fragmenstein_placed,CpKRS_FrAncestor_bulkdock_iter1_exported,BulkDock Fragalysis export

>  <inchikey>  (123) 
YPRUCPIDMDSYRO-UHFFFAOYSA-N

>  <placement_batch>  (123) 
CpKRS_FrAncestor_bulkdock_iter1_cluster_best5

>  <alias>  (123) 
C254677-P56

>  <name>  (123) 
C254677-P56

>  <smiles>  (123) 
C#Cc1ccc(CNC(=O)C2=COCCO2)cc1

>  <subsites>  (123) 


>  <distance_score>  (123) 
0.352215

$$$$
C256825-P8
     RDKit          3D

 18 19  0  0  0  0  0  0  0  0999 V2000
    1.1674    7.3414   47.0784 C   0  0  0  0  0  0  0  0  0  0  0  0
    1.9474    6.2897   46.3494 C   0  0  0  0  0  0  0  0  0  0  0  0
    2.2038    5.0339   46.9076 C   0  0  0  0  0  0  0  0  0  0  0  0
    2.8870    4.0646   46.1745 C   0  0  0  0  0  0  0  0  0  0  0  0
    3.3199    4.3459   44.8764 C   0  0  0  0  0  0  0  0  0  0  0  0
    3.0888    5.6053   44.3196 C   0  0  0  0  0  0  0  0  0  0  0  0
    3.6052    5.9132   43.0640 N   0  0  0  0  0  0  0  0  0  0  0  0
    3.7037    7.2806   42.3166 C   0  0  0  0  0  0  0  0  0  0  0  0
    3.2968    8.3357   42.6122 O   0  0  0  0  0  0  0  0  0  0  0  0
    4.5804    7.0178   41.0785 C   0  0  1  0  0  0  0  0  0  0  0  0
    4.4303    5.6526   40.6358 O   0  0  0  0  0  0  0  0  0  0  0  0
    5.4291    5.3630   39.6484 C   0  0  0  0  0  0  0  0  0  0  0  0
    5.3316    6.3584   38.5006 C   0  0  0  0  0  0  0  0  0  0  0  0
    5.4462    7.7112   38.9346 O   0  0  0  0  0  0  0  0  0  0  0  0
    4.4610    8.0553   39.9424 C   0  0  0  0  0  0  0  0  0  0  0  0
    4.8743    9.4721   40.3750 C   0  0  0  0  0  0  0  0  0  0  0  0
    3.0544    8.1156   39.3315 C   0  0  0  0  0  0  0  0  0  0  0  0
    2.3933    6.5629   45.0515 C   0  0  0  0  0  0  0  0  0  0  0  0
  1  2  1  0
  2  3  2  0
  3  4  1  0
  4  5  2  0
  5  6  1  0
  6  7  1  0
  7  8  1  0
  8  9  2  0
 10  8  1  1
 10 11  1  0
 11 12  1  0
 12 13  1  0
 13 14  1  0
 14 15  1  0
 15 16  1  0
 15 17  1  0
  6 18  2  0
 18  2  1  0
 15 10  1  0
M  END
>  <inspiration_score>  (124) 
0.521

>  <HIPPO Pose ID>  (124) 
498105

>  <ref_pdb>  (124) 
x0479b

>  <ref_mols>  (124) 
x0419b

>  <HIPPO Compound ID>  (124) 
256825

>  <energy_score>  (124) 
-62.114671

>  <tags>  (124) 
CpKRS_FrAncestor_bulkdock_iter1,CpKRS_FrAncestor_bulkdock_iter1_cluster_best5,fragmenstein_placed,CpKRS_FrAncestor_bulkdock_iter1_exported,BulkDock Fragalysis export

>  <inchikey>  (124) 
KTVDLYDDICJPKH-UHFFFAOYSA-N

>  <placement_batch>  (124) 
CpKRS_FrAncestor_bulkdock_iter1_cluster_best5

>  <alias>  (124) 
C256825-P8

>  <name>  (124) 
C256825-P8

>  <smiles>  (124) 
Cc1cccc(NC(=O)[C@H]2OCCOC2(C)C)c1

>  <subsites>  (124) 


>  <distance_score>  (124) 
0.867293

$$$$
C258498-P17
     RDKit          3D

 18 19  0  0  0  0  0  0  0  0999 V2000
    5.6796  -13.6173   25.2992 O   0  0  0  0  0  0  0  0  0  0  0  0
    4.5563  -13.4857   25.0226 C   0  0  0  0  0  0  0  0  0  0  0  0
    3.8962  -12.6684   23.9023 N   0  0  0  0  0  0  0  0  0  0  0  0
    4.4818  -11.9146   22.8255 C   0  0  0  0  0  0  0  0  0  0  0  0
    4.8160  -10.4870   23.2192 C   0  0  0  0  0  0  0  0  0  0  0  0
    5.0860  -10.1312   24.5358 C   0  0  0  0  0  0  0  0  0  0  0  0
    5.4206   -8.8266   24.9218 C   0  0  0  0  0  0  0  0  0  0  0  0
    5.5131   -7.8263   23.9711 C   0  0  0  0  0  0  0  0  0  0  0  0
    5.2770   -8.1570   22.6528 C   0  0  0  0  0  0  0  0  0  0  0  0
    5.3483   -7.1886   21.7288 F   0  0  0  0  0  0  0  0  0  0  0  0
    4.9476   -9.4653   22.2890 C   0  0  0  0  0  0  0  0  0  0  0  0
    4.6826   -9.7895   20.6633 Cl  0  0  0  0  0  0  0  0  0  0  0  0
    3.5723  -14.1196   25.9409 C   0  0  0  0  0  0  0  0  0  0  0  0
    3.9851  -15.2007   26.7042 C   0  0  0  0  0  0  0  0  0  0  0  0
    3.1304  -15.6670   27.6743 C   0  0  0  0  0  0  0  0  0  0  0  0
    1.9258  -15.1119   27.9303 N   0  0  0  0  0  0  0  0  0  0  0  0
    1.5151  -14.0557   27.1851 N   0  0  0  0  0  0  0  0  0  0  0  0
    2.3314  -13.5745   26.2187 C   0  0  0  0  0  0  0  0  0  0  0  0
  1  2  2  0
  2  3  1  0
  3  4  1  0
  4  5  1  0
  5  6  2  0
  6  7  1  0
  7  8  2  0
  8  9  1  0
  9 10  1  0
  9 11  2  0
 11 12  1  0
  2 13  1  0
 13 14  2  0
 14 15  1  0
 15 16  2  0
 16 17  1  0
 17 18  2  0
 11  5  1  0
 18 13  1  0
M  END
>  <inspiration_score>  (125) 
0.76

>  <HIPPO Pose ID>  (125) 
502291

>  <ref_pdb>  (125) 
x0479b

>  <ref_mols>  (125) 
x0434a

>  <HIPPO Compound ID>  (125) 
258498

>  <energy_score>  (125) 
-108.796477

>  <tags>  (125) 
CpKRS_FrAncestor_bulkdock_iter1,CpKRS_FrAncestor_bulkdock_iter1_cluster_best5,fragmenstein_placed,CpKRS_FrAncestor_bulkdock_iter1_exported,BulkDock Fragalysis export

>  <inchikey>  (125) 
RDOIQZIDGYBJPD-UHFFFAOYSA-N

>  <placement_batch>  (125) 
CpKRS_FrAncestor_bulkdock_iter1_cluster_best5

>  <alias>  (125) 
C258498-P17

>  <name>  (125) 
C258498-P17

>  <smiles>  (125) 
O=C(NCc1cccc(F)c1Cl)c1ccnnc1

>  <subsites>  (125) 


>  <distance_score>  (125) 
0.625128

$$$$
C262073-P5
     RDKit          3D

 18 19  0  0  0  0  0  0  0  0999 V2000
    2.0303  -12.0062   22.5308 C   0  0  0  0  0  0  0  0  0  0  0  0
    3.1636  -11.6560   22.3394 C   0  0  0  0  0  0  0  0  0  0  0  0
    4.6041  -11.3712   22.3424 C   0  0  1  0  0  0  0  0  0  0  0  0
    4.9753  -10.0145   21.7396 C   0  0  0  0  0  0  0  0  0  0  0  0
    4.8851   -9.0513   22.9206 C   0  0  0  0  0  0  0  0  0  0  0  0
    5.3703   -9.8996   24.0886 C   0  0  0  0  0  0  0  0  0  0  0  0
    4.9775  -11.2433   23.7295 N   0  0  0  0  0  0  0  0  0  0  0  0
    4.9289  -12.3663   24.5557 C   0  0  0  0  0  0  0  0  0  0  0  0
    5.8249  -13.0938   24.7102 O   0  0  0  0  0  0  0  0  0  0  0  0
    3.4728  -12.4437   25.0755 N   0  0  0  0  0  0  0  0  0  0  0  0
    2.8372  -13.4187   25.7687 C   0  0  0  0  0  0  0  0  0  0  0  0
    3.7071  -14.8042   26.1833 S   0  0  0  0  0  0  0  0  0  0  0  0
    2.3455  -15.3520   27.0560 C   0  0  0  0  0  0  0  0  0  0  0  0
    2.4657  -16.5851   27.8669 C   0  0  0  0  0  0  0  0  0  0  0  0
    3.2461  -16.3231   29.1427 C   0  0  0  0  0  0  0  0  0  0  0  0
    1.2564  -14.6170   26.9658 N   0  0  0  0  0  0  0  0  0  0  0  0
    1.5261  -13.5068   26.1829 C   0  0  0  0  0  0  0  0  0  0  0  0
    0.4127  -12.5808   25.8721 C   0  0  0  0  0  0  0  0  0  0  0  0
  1  2  3  0
  3  2  1  1
  3  4  1  0
  4  5  1  0
  5  6  1  0
  6  7  1  0
  7  8  1  0
  8  9  2  0
  8 10  1  0
 10 11  1  0
 11 12  1  0
 12 13  1  0
 13 14  1  0
 14 15  1  0
 13 16  2  0
 16 17  1  0
 17 18  1  0
  7  3  1  0
 17 11  2  0
M  END
>  <inspiration_score>  (126) 
0.692

>  <HIPPO Pose ID>  (126) 
511017

>  <ref_pdb>  (126) 
x0675b

>  <ref_mols>  (126) 
x0407b

>  <HIPPO Compound ID>  (126) 
262073

>  <energy_score>  (126) 
-101.308011

>  <tags>  (126) 
CpKRS_FrAncestor_bulkdock_iter1,CpKRS_FrAncestor_bulkdock_iter1_cluster_best5,fragmenstein_placed,CpKRS_FrAncestor_bulkdock_iter1_exported,BulkDock Fragalysis export

>  <inchikey>  (126) 
GIBDNHWSQZZJDD-UHFFFAOYSA-N

>  <placement_batch>  (126) 
CpKRS_FrAncestor_bulkdock_iter1_cluster_best5

>  <alias>  (126) 
C262073-P5

>  <name>  (126) 
C262073-P5

>  <smiles>  (126) 
C#C[C@H]1CCCN1C(=O)Nc1sc(CC)nc1C

>  <subsites>  (126) 


>  <distance_score>  (126) 
0.569391

$$$$
XUAHWNGFZKIXQY-UHFFFAOYSA-N-P7
     RDKit          3D

 13 13  0  0  0  0  0  0  0  0999 V2000
    4.8677   -8.5298   22.0218 C   0  0  0  0  0  0  0  0  0  0  0  0
    4.4198   -8.8967   23.2309 C   0  0  0  0  0  0  0  0  0  0  0  0
    5.1748   -8.7387   24.5284 C   0  0  2  0  0  0  0  0  0  0  0  0
    6.3072   -7.8961   24.3056 O   0  0  0  0  0  0  0  0  0  0  0  0
    5.6211  -10.1317   25.0477 C   0  0  0  0  0  0  0  0  0  0  0  0
    4.4890  -10.9093   25.5893 N   0  0  0  0  0  0  0  0  0  0  0  0
    4.3600  -10.6596   27.0369 C   0  0  0  0  0  0  0  0  0  0  0  0
    3.3267  -11.4926   27.7222 C   0  0  0  0  0  0  0  0  0  0  0  0
    2.7382  -12.5497   27.1514 C   0  0  0  0  0  0  0  0  0  0  0  0
    3.0998  -12.9709   25.7635 C   0  0  0  0  0  0  0  0  0  0  0  0
    4.4423  -12.3581   25.2417 C   0  0  0  0  0  0  0  0  0  0  0  0
    4.4169  -12.5713   23.7086 C   0  0  0  0  0  0  0  0  0  0  0  0
    5.6118  -13.1600   25.8473 C   0  0  0  0  0  0  0  0  0  0  0  0
  1  2  2  0
  2  3  1  0
  3  4  1  6
  3  5  1  0
  5  6  1  0
  6  7  1  0
  7  8  1  0
  8  9  2  0
  9 10  1  0
 10 11  1  0
 11 12  1  0
 11 13  1  0
 11  6  1  0
M  END
>  <inspiration_score>  (127) 
0.806

>  <HIPPO Pose ID>  (127) 
541434

>  <ref_pdb>  (127) 
x0414a

>  <ref_mols>  (127) 
x0414b

>  <HIPPO Compound ID>  (127) 
275123

>  <energy_score>  (127) 
-126.760839

>  <tags>  (127) 
CpKRS_FrAncestor_bulkdock_iter1,CpKRS_FrAncestor_bulkdock_iter1_cluster_best5,fragmenstein_placed,CpKRS_FrAncestor_bulkdock_iter1_exported,BulkDock Fragalysis export

>  <inchikey>  (127) 
XUAHWNGFZKIXQY-UHFFFAOYSA-N

>  <placement_batch>  (127) 
CpKRS_FrAncestor_bulkdock_iter1_cluster_best5

>  <alias>  (127) 
XUAHWNGFZKIXQY-UHFFFAOYSA-N-P7

>  <name>  (127) 
XUAHWNGFZKIXQY-UHFFFAOYSA-N-P7

>  <smiles>  (127) 
C=CC(O)CN1CC=CCC1(C)C

>  <subsites>  (127) 


>  <distance_score>  (127) 
0.485363

$$$$
CPEGLWFONKRYND-UHFFFAOYSA-N-P36
     RDKit          3D

 13 13  0  0  0  0  0  0  0  0999 V2000
    1.0261  -14.1378   25.4804 F   0  0  0  0  0  0  0  0  0  0  0  0
    1.6220  -13.7931   26.6559 C   0  0  0  0  0  0  0  0  0  0  0  0
    0.5940  -13.5204   27.5085 F   0  0  0  0  0  0  0  0  0  0  0  0
    2.4665  -12.5316   26.4471 C   0  0  2  0  0  0  0  0  0  0  0  0
    3.6096  -12.8077   25.4416 C   0  0  0  0  0  0  0  0  0  0  0  0
    4.2334  -11.5479   24.9530 N   0  0  0  0  0  0  0  0  0  0  0  0
    3.4360  -11.0531   23.8271 C   0  0  0  0  0  0  0  0  0  0  0  0
    3.9036   -9.7958   23.1842 C   0  0  0  0  0  0  0  0  0  0  0  0
    5.1505   -9.3261   23.1595 C   0  0  0  0  0  0  0  0  0  0  0  0
    5.5536   -7.7712   22.2779 Br  0  0  0  0  0  0  0  0  0  0  0  0
    4.3232  -10.5454   26.0451 C   0  0  0  0  0  0  0  0  0  0  0  0
    4.2065  -11.1399   27.4566 C   0  0  0  0  0  0  0  0  0  0  0  0
    2.9959  -11.9306   27.6897 N   0  0  0  0  0  0  0  0  0  0  0  0
  1  2  1  0
  2  3  1  0
  4  2  1  1
  4  5  1  0
  5  6  1  0
  6  7  1  0
  7  8  1  0
  8  9  2  3
  9 10  1  0
  6 11  1  0
 11 12  1  0
 12 13  1  0
 13  4  1  0
M  END
>  <inspiration_score>  (128) 
0.515

>  <HIPPO Pose ID>  (128) 
546547

>  <ref_pdb>  (128) 
x0414a

>  <ref_mols>  (128) 
x0540a

>  <HIPPO Compound ID>  (128) 
276744

>  <energy_score>  (128) 
-44.994688

>  <tags>  (128) 
CpKRS_FrAncestor_bulkdock_iter1,CpKRS_FrAncestor_bulkdock_iter1_cluster_best5,fragmenstein_placed,CpKRS_FrAncestor_bulkdock_iter1_exported,BulkDock Fragalysis export

>  <inchikey>  (128) 
CPEGLWFONKRYND-UHFFFAOYSA-N

>  <placement_batch>  (128) 
CpKRS_FrAncestor_bulkdock_iter1_cluster_best5

>  <alias>  (128) 
CPEGLWFONKRYND-UHFFFAOYSA-N-P36

>  <name>  (128) 
CPEGLWFONKRYND-UHFFFAOYSA-N-P36

>  <smiles>  (128) 
FC(F)C1CN(CC=CBr)CCN1

>  <subsites>  (128) 


>  <distance_score>  (128) 
0.726294

$$$$
C285415-P59
     RDKit          3D

 18 19  0  0  0  0  0  0  0  0999 V2000
    3.0025  -20.0479   22.9498 C   0  0  0  0  0  0  0  0  0  0  0  0
    3.8305  -20.8665   22.0105 C   0  0  0  0  0  0  0  0  0  0  0  0
    5.0028  -20.3430   21.4607 C   0  0  0  0  0  0  0  0  0  0  0  0
    5.8196  -21.1216   20.6446 C   0  0  0  0  0  0  0  0  0  0  0  0
    5.4584  -22.4341   20.3463 C   0  0  0  0  0  0  0  0  0  0  0  0
    4.2790  -22.9782   20.8755 C   0  0  0  0  0  0  0  0  0  0  0  0
    3.8688  -24.4053   20.6244 C   0  0  0  0  0  0  0  0  0  0  0  0
    2.8942  -24.5632   19.5488 N   0  0  0  0  0  0  0  0  0  0  0  0
    3.3702  -24.1082   18.2354 C   0  0  0  0  0  0  0  0  0  0  0  0
    2.3383  -24.2990   17.0999 C   0  0  0  0  0  0  0  0  0  0  0  0
    1.7549  -25.6456   16.9993 N   0  0  0  0  0  0  0  0  0  0  0  0
    1.8994  -26.2287   15.6793 C   0  0  0  0  0  0  0  0  0  0  0  0
    2.2147  -26.5212   18.0805 C   0  0  0  0  0  0  0  0  0  0  0  0
    2.1474  -25.8516   19.4993 C   0  0  0  0  0  0  0  0  0  0  0  0
    0.6825  -25.4959   19.8427 C   0  0  0  0  0  0  0  0  0  0  0  0
    2.5959  -26.9300   20.5070 C   0  0  0  0  0  0  0  0  0  0  0  0
    3.4722  -22.1756   21.6902 C   0  0  0  0  0  0  0  0  0  0  0  0
    2.3332  -22.6801   22.1865 F   0  0  0  0  0  0  0  0  0  0  0  0
  1  2  1  0
  2  3  2  0
  3  4  1  0
  4  5  2  0
  5  6  1  0
  6  7  1  0
  7  8  1  0
  8  9  1  0
  9 10  1  0
 10 11  1  0
 11 12  1  0
 11 13  1  0
 13 14  1  0
 14 15  1  0
 14 16  1  0
  6 17  2  0
 17 18  1  0
 17  2  1  0
 14  8  1  0
M  END
>  <inspiration_score>  (129) 
0.756

>  <HIPPO Pose ID>  (129) 
561003

>  <ref_pdb>  (129) 
x0675a

>  <ref_mols>  (129) 
x0675a

>  <HIPPO Compound ID>  (129) 
285415

>  <energy_score>  (129) 
-61.795201

>  <tags>  (129) 
CpKRS_FrAncestor_bulkdock_iter1,CpKRS_FrAncestor_bulkdock_iter1_cluster_best5,fragmenstein_placed,CpKRS_FrAncestor_bulkdock_iter1_exported,BulkDock Fragalysis export

>  <inchikey>  (129) 
MTYUGPMLKAAIPJ-UHFFFAOYSA-N

>  <placement_batch>  (129) 
CpKRS_FrAncestor_bulkdock_iter1_cluster_best5

>  <alias>  (129) 
C285415-P59

>  <name>  (129) 
C285415-P59

>  <smiles>  (129) 
Cc1cccc(CN2CCN(C)CC2(C)C)c1F

>  <subsites>  (129) 


>  <distance_score>  (129) 
0.550813

$$$$
C286396-P59
     RDKit          3D

 18 19  0  0  0  0  0  0  0  0999 V2000
    1.8348  -27.0547   21.7004 C   0  0  0  0  0  0  0  0  0  0  0  0
    2.5508  -26.7250   20.6151 C   0  0  0  0  0  0  0  0  0  0  0  0
    2.1973  -25.7566   19.4875 C   0  0  2  0  0  0  0  0  0  0  0  0
    0.7018  -25.3607   19.5527 C   0  0  0  0  0  0  0  0  0  0  0  0
    2.4584  -26.5455   18.1631 C   0  0  0  0  0  0  0  0  0  0  0  0
    2.1970  -25.8280   16.9529 O   0  0  0  0  0  0  0  0  0  0  0  0
    2.5159  -24.4352   17.0397 C   0  0  0  0  0  0  0  0  0  0  0  0
    3.4827  -24.0922   18.1782 C   0  0  0  0  0  0  0  0  0  0  0  0
    2.9649  -24.4756   19.5062 N   0  0  0  0  0  0  0  0  0  0  0  0
    3.9735  -24.3182   20.5533 C   0  0  0  0  0  0  0  0  0  0  0  0
    4.3396  -22.8768   20.8356 C   0  0  0  0  0  0  0  0  0  0  0  0
    5.5589  -22.3367   20.4033 C   0  0  0  0  0  0  0  0  0  0  0  0
    5.8839  -21.0359   20.7636 C   0  0  0  0  0  0  0  0  0  0  0  0
    5.0931  -20.2458   21.5164 N   0  0  0  0  0  0  0  0  0  0  0  0
    3.9152  -20.7758   21.9141 C   0  0  0  0  0  0  0  0  0  0  0  0
    3.1252  -19.9932   22.6666 F   0  0  0  0  0  0  0  0  0  0  0  0
    3.4738  -22.0579   21.5840 C   0  0  0  0  0  0  0  0  0  0  0  0
    2.0840  -22.5024   21.9325 C   0  0  0  0  0  0  0  0  0  0  0  0
  1  2  2  0
  2  3  1  0
  3  4  1  1
  3  5  1  0
  5  6  1  0
  6  7  1  0
  7  8  1  0
  8  9  1  0
  9 10  1  0
 10 11  1  0
 11 12  2  0
 12 13  1  0
 13 14  2  0
 14 15  1  0
 15 16  1  0
 15 17  2  0
 17 18  1  0
  9  3  1  0
 17 11  1  0
M  END
>  <inspiration_score>  (130) 
0.901

>  <HIPPO Pose ID>  (130) 
562910

>  <ref_pdb>  (130) 
x0675a

>  <ref_mols>  (130) 
x0675a

>  <HIPPO Compound ID>  (130) 
286396

>  <energy_score>  (130) 
-59.004029

>  <tags>  (130) 
CpKRS_FrAncestor_bulkdock_iter1,CpKRS_FrAncestor_bulkdock_iter1_cluster_best5,fragmenstein_placed,CpKRS_FrAncestor_bulkdock_iter1_exported,BulkDock Fragalysis export

>  <inchikey>  (130) 
DCFRAGKLGMQMIP-UHFFFAOYSA-N

>  <placement_batch>  (130) 
CpKRS_FrAncestor_bulkdock_iter1_cluster_best5

>  <alias>  (130) 
C286396-P59

>  <name>  (130) 
C286396-P59

>  <smiles>  (130) 
C=C[C@]1(C)COCCN1Cc1ccnc(F)c1C

>  <subsites>  (130) 


>  <distance_score>  (130) 
0.455602

$$$$
C286443-P60
     RDKit          3D

 18 19  0  0  0  0  0  0  0  0999 V2000
   -4.3982  -25.4886   27.9581 C   0  0  0  0  0  0  0  0  0  0  0  0
   -3.6582  -25.5577   27.0151 C   0  0  0  0  0  0  0  0  0  0  0  0
   -2.7996  -25.6791   25.8775 C   0  0  0  0  0  0  0  0  0  0  0  0
   -2.0268  -24.6000   25.4551 C   0  0  0  0  0  0  0  0  0  0  0  0
   -1.2014  -24.7303   24.3354 C   0  0  0  0  0  0  0  0  0  0  0  0
   -1.1238  -25.9421   23.6468 C   0  0  0  0  0  0  0  0  0  0  0  0
   -1.9103  -27.0281   24.0484 C   0  0  0  0  0  0  0  0  0  0  0  0
   -1.8953  -28.3292   23.2833 C   0  0  0  0  0  0  0  0  0  0  0  0
   -0.7793  -29.2309   23.6232 N   0  0  0  0  0  0  0  0  0  0  0  0
   -0.8047  -29.6963   25.0215 C   0  0  0  0  0  0  0  0  0  0  0  0
   -1.7215  -30.8852   25.3123 C   0  0  0  0  0  0  0  0  0  0  0  0
   -1.1263  -32.4092   24.5108 S   0  0  0  0  0  0  0  0  0  0  0  0
   -0.0551  -31.6576   23.2228 C   0  0  0  0  0  0  0  0  0  0  0  0
   -0.6151  -30.3463   22.6258 C   0  0  1  0  0  0  0  0  0  0  0  0
   -1.8141  -30.6864   21.8032 C   0  0  0  0  0  0  0  0  0  0  0  0
   -2.7560  -30.9235   21.1657 N   0  0  0  0  0  0  0  0  0  0  0  0
   -2.7437  -26.8776   25.1650 C   0  0  0  0  0  0  0  0  0  0  0  0
   -3.4958  -27.9199   25.5589 F   0  0  0  0  0  0  0  0  0  0  0  0
  1  2  3  0
  2  3  1  0
  3  4  2  0
  4  5  1  0
  5  6  2  0
  6  7  1  0
  7  8  1  0
  8  9  1  0
  9 10  1  0
 10 11  1  0
 11 12  1  0
 12 13  1  0
 13 14  1  0
 14 15  1  1
 15 16  3  0
  7 17  2  0
 17 18  1  0
 17  3  1  0
 14  9  1  0
M  END
>  <inspiration_score>  (131) 
0.679

>  <HIPPO Pose ID>  (131) 
563005

>  <ref_pdb>  (131) 
x0675a

>  <ref_mols>  (131) 
x0675b

>  <HIPPO Compound ID>  (131) 
286443

>  <energy_score>  (131) 
-177.24766

>  <tags>  (131) 
CpKRS_FrAncestor_bulkdock_iter1,CpKRS_FrAncestor_bulkdock_iter1_cluster_best5,fragmenstein_placed,CpKRS_FrAncestor_bulkdock_iter1_exported,BulkDock Fragalysis export

>  <inchikey>  (131) 
ANAJKGYUSZVSLN-UHFFFAOYSA-N

>  <placement_batch>  (131) 
CpKRS_FrAncestor_bulkdock_iter1_cluster_best5

>  <alias>  (131) 
C286443-P60

>  <name>  (131) 
C286443-P60

>  <smiles>  (131) 
C#Cc1cccc(CN2CCSC[C@H]2C#N)c1F

>  <subsites>  (131) 


>  <distance_score>  (131) 
0.462073

$$$$
C288052-P43
     RDKit          3D

 18 19  0  0  0  0  0  0  0  0999 V2000
    6.8691    5.2850   40.8618 C   0  0  0  0  0  0  0  0  0  0  0  0
    5.5481    5.4514   40.1318 C   0  0  0  0  0  0  0  0  0  0  0  0
    5.3161    4.1006   39.4989 C   0  0  0  0  0  0  0  0  0  0  0  0
    5.6905    6.3595   39.0190 O   0  0  0  0  0  0  0  0  0  0  0  0
    5.8849    7.7108   39.4216 C   0  0  0  0  0  0  0  0  0  0  0  0
    4.7650    8.1937   40.3450 C   0  0  0  0  0  0  0  0  0  0  0  0
    4.4481    7.3361   41.5202 N   0  0  0  0  0  0  0  0  0  0  0  0
    4.3658    5.9082   41.0406 C   0  0  2  0  0  0  0  0  0  0  0  0
    4.0984    4.8813   42.1952 C   0  0  0  0  0  0  0  0  0  0  0  0
    4.1595    3.7321   42.0099 O   0  0  0  0  0  0  0  0  0  0  0  0
    3.6745    5.6715   43.4549 N   0  0  0  0  0  0  0  0  0  0  0  0
    3.3419    5.2282   44.7271 C   0  0  0  0  0  0  0  0  0  0  0  0
    2.6461    6.1005   45.5531 C   0  0  0  0  0  0  0  0  0  0  0  0
    2.1422    5.6368   46.7641 C   0  0  0  0  0  0  0  0  0  0  0  0
    2.4100    4.3407   47.2027 C   0  0  0  0  0  0  0  0  0  0  0  0
    3.1666    3.4906   46.4127 C   0  0  0  0  0  0  0  0  0  0  0  0
    3.6125    3.9289   45.1729 C   0  0  0  0  0  0  0  0  0  0  0  0
    4.3578    3.0800   44.4547 F   0  0  0  0  0  0  0  0  0  0  0  0
  1  2  1  0
  2  3  1  0
  2  4  1  0
  4  5  1  0
  5  6  1  0
  6  7  1  0
  7  8  1  0
  8  9  1  1
  9 10  2  0
  9 11  1  0
 11 12  1  0
 12 13  2  0
 13 14  1  0
 14 15  2  0
 15 16  1  0
 16 17  2  0
 17 18  1  0
  8  2  1  0
 17 12  1  0
M  END
>  <inspiration_score>  (132) 
0.688

>  <HIPPO Pose ID>  (132) 
566373

>  <ref_pdb>  (132) 
x0675a

>  <ref_mols>  (132) 
x0606c

>  <HIPPO Compound ID>  (132) 
288052

>  <energy_score>  (132) 
-52.895286

>  <tags>  (132) 
CpKRS_FrAncestor_bulkdock_iter1,CpKRS_FrAncestor_bulkdock_iter1_cluster_best5,fragmenstein_placed,CpKRS_FrAncestor_bulkdock_iter1_exported,BulkDock Fragalysis export

>  <inchikey>  (132) 
GASBLAZJEBMSDW-UHFFFAOYSA-N

>  <placement_batch>  (132) 
CpKRS_FrAncestor_bulkdock_iter1_cluster_best5

>  <alias>  (132) 
C288052-P43

>  <name>  (132) 
C288052-P43

>  <smiles>  (132) 
CC1(C)OCCN[C@@H]1C(=O)Nc1ccccc1F

>  <subsites>  (132) 


>  <distance_score>  (132) 
0.547179

$$$$
PYJYXZWNONLFMK-GFCCVEGCSA-N-P56
     RDKit          3D

 18 19  0  0  0  0  0  0  0  0999 V2000
    5.2828  -13.5125   24.9285 O   0  0  0  0  0  0  0  0  0  0  0  0
    4.1632  -13.9392   24.8679 C   0  0  0  0  0  0  0  0  0  0  0  0
    3.3133  -13.5900   23.8576 O   0  0  0  0  0  0  0  0  0  0  0  0
    3.8717  -12.8136   22.7923 C   0  0  0  0  0  0  0  0  0  0  0  0
    4.1433  -11.3532   23.0989 C   0  0  0  0  0  0  0  0  0  0  0  0
    3.5205  -10.6580   24.1439 C   0  0  0  0  0  0  0  0  0  0  0  0
    3.8631   -9.3287   24.4132 C   0  0  0  0  0  0  0  0  0  0  0  0
    4.8113   -8.6894   23.6226 C   0  0  0  0  0  0  0  0  0  0  0  0
    5.1581   -7.4240   23.8887 F   0  0  0  0  0  0  0  0  0  0  0  0
    5.3921   -9.3371   22.5438 C   0  0  0  0  0  0  0  0  0  0  0  0
    5.0552  -10.6636   22.2834 C   0  0  0  0  0  0  0  0  0  0  0  0
    3.4380  -14.7506   25.7700 N   0  0  0  0  0  0  0  0  0  0  0  0
    2.6883  -13.8995   26.7278 C   0  0  0  0  0  0  0  0  0  0  0  0
    1.3365  -14.4963   27.1549 C   0  0  0  0  0  0  0  0  0  0  0  0
    1.5692  -15.7927   27.8928 C   0  0  0  0  0  0  0  0  0  0  0  0
    3.0035  -15.7689   28.3226 C   0  0  1  0  0  0  0  0  0  0  0  0
    3.3436  -16.9765   28.9860 O   0  0  0  0  0  0  0  0  0  0  0  0
    3.8789  -15.4497   27.0693 C   0  0  0  0  0  0  0  0  0  0  0  0
  1  2  2  0
  2  3  1  0
  3  4  1  0
  4  5  1  0
  5  6  2  0
  6  7  1  0
  7  8  2  0
  8  9  1  0
  8 10  1  0
 10 11  2  0
  2 12  1  0
 12 13  1  0
 13 14  1  0
 14 15  1  0
 15 16  1  0
 16 17  1  6
 16 18  1  0
 11  5  1  0
 18 12  1  0
M  END
>  <inspiration_score>  (133) 
0.569

>  <HIPPO Pose ID>  (133) 
577504

>  <ref_pdb>  (133) 
x0654c

>  <ref_mols>  (133) 
x0654a

>  <HIPPO Compound ID>  (133) 
290916

>  <energy_score>  (133) 
-340.479671

>  <tags>  (133) 
CpKRS_FrAncestor_bulkdock_iter1,CpKRS_FrAncestor_bulkdock_iter1_cluster_best5,fragmenstein_placed,CpKRS_FrAncestor_bulkdock_iter1_exported,BulkDock Fragalysis export

>  <inchikey>  (133) 
PYJYXZWNONLFMK-UHFFFAOYSA-N

>  <placement_batch>  (133) 
CpKRS_FrAncestor_bulkdock_iter1_cluster_best5

>  <alias>  (133) 
PYJYXZWNONLFMK-GFCCVEGCSA-N-P56

>  <name>  (133) 
PYJYXZWNONLFMK-GFCCVEGCSA-N-P56

>  <smiles>  (133) 
O=C(OCc1ccc(F)cc1)N1CCC[C@@H](O)C1

>  <subsites>  (133) 


>  <distance_score>  (133) 
0.62876

$$$$
C405293-P9
     RDKit          3D

 19 20  0  0  0  0  0  0  0  0999 V2000
    5.0940   -8.7115   20.9934 C   0  0  0  0  0  0  0  0  0  0  0  0
    5.9807   -9.4898   21.7844 O   0  0  0  0  0  0  0  0  0  0  0  0
    5.2498  -10.3776   22.5151 C   0  0  0  0  0  0  0  0  0  0  0  0
    5.3219  -11.7210   22.1646 C   0  0  0  0  0  0  0  0  0  0  0  0
    4.6329  -12.6606   22.9114 C   0  0  0  0  0  0  0  0  0  0  0  0
    3.7973  -12.2303   23.9330 C   0  0  0  0  0  0  0  0  0  0  0  0
    3.1369  -13.1655   24.6917 N   0  0  0  0  0  0  0  0  0  0  0  0
    3.6575  -14.4720   25.3666 C   0  0  0  0  0  0  0  0  0  0  0  0
    4.7073  -14.9864   25.3128 O   0  0  0  0  0  0  0  0  0  0  0  0
    2.5087  -15.0094   26.2480 C   0  0  2  0  0  0  0  0  0  0  0  0
    1.4185  -15.3669   25.4934 F   0  0  0  0  0  0  0  0  0  0  0  0
    1.9794  -13.9449   27.2053 C   0  0  0  0  0  0  0  0  0  0  0  0
    1.0216  -14.5914   28.1743 C   0  0  0  0  0  0  0  0  0  0  0  0
    1.7751  -15.6109   28.9852 C   0  0  0  0  0  0  0  0  0  0  0  0
    2.2040  -16.6533   28.1291 O   0  0  0  0  0  0  0  0  0  0  0  0
    3.0393  -16.2272   27.0396 C   0  0  0  0  0  0  0  0  0  0  0  0
    3.6879  -10.8829   24.2713 C   0  0  0  0  0  0  0  0  0  0  0  0
    4.4905   -9.9654   23.6105 C   0  0  0  0  0  0  0  0  0  0  0  0
    4.5854   -8.3459   24.1970 Cl  0  0  0  0  0  0  0  0  0  0  0  0
  1  2  1  0
  2  3  1  0
  3  4  2  0
  4  5  1  0
  5  6  2  0
  6  7  1  0
  7  8  1  0
  8  9  2  0
  8 10  1  0
 10 11  1  6
 10 12  1  0
 12 13  1  0
 13 14  1  0
 14 15  1  0
 15 16  1  0
  6 17  1  0
 17 18  2  0
 18 19  1  0
 18  3  1  0
 16 10  1  0
M  END
>  <inspiration_score>  (134) 
0.621

>  <HIPPO Pose ID>  (134) 
581200

>  <ref_pdb>  (134) 
x0419a

>  <ref_mols>  (134) 
x0419a

>  <HIPPO Compound ID>  (134) 
405293

>  <energy_score>  (134) 
-66.042137

>  <tags>  (134) 
CpKRS_FrAncestor_bulkdock_iter1,CpKRS_FrAncestor_bulkdock_iter1_cluster_best5,fragmenstein_placed,CpKRS_FrAncestor_bulkdock_iter1_exported,BulkDock Fragalysis export

>  <inchikey>  (134) 
CHNFZWZVTFEFRA-UHFFFAOYSA-N

>  <placement_batch>  (134) 
CpKRS_FrAncestor_bulkdock_iter1_cluster_best5

>  <alias>  (134) 
C405293-P9

>  <name>  (134) 
C405293-P9

>  <smiles>  (134) 
COc1ccc(NC(=O)[C@]2(F)CCCOC2)cc1Cl

>  <subsites>  (134) 


>  <distance_score>  (134) 
0.865359

$$$$
GJMFMXZELSXWHK-UHFFFAOYSA-N-P57
     RDKit          3D

 19 20  0  0  0  0  0  0  0  0999 V2000
    0.3897  -15.7597   30.1557 C   0  0  0  0  0  0  0  0  0  0  0  0
    1.1211  -15.5986   29.2180 C   0  0  0  0  0  0  0  0  0  0  0  0
    1.9557  -15.3647   28.0860 C   0  0  0  0  0  0  0  0  0  0  0  0
    1.4347  -14.7519   26.9573 C   0  0  0  0  0  0  0  0  0  0  0  0
    2.1553  -14.4283   25.8636 N   0  0  0  0  0  0  0  0  0  0  0  0
    3.4859  -14.7442   25.8955 C   0  0  0  0  0  0  0  0  0  0  0  0
    4.2747  -14.2713   24.6851 C   0  0  0  0  0  0  0  0  0  0  0  0
    5.3466  -14.6620   24.4611 O   0  0  0  0  0  0  0  0  0  0  0  0
    3.4439  -13.1953   23.9825 N   0  0  0  0  0  0  0  0  0  0  0  0
    3.7125  -12.4411   22.8067 C   0  0  0  0  0  0  0  0  0  0  0  0
    4.0867  -11.0376   23.1987 C   0  0  0  0  0  0  0  0  0  0  0  0
    3.6622  -10.3860   24.3017 C   0  0  0  0  0  0  0  0  0  0  0  0
    4.0358   -8.9699   24.6159 C   0  0  0  0  0  0  0  0  0  0  0  0
    4.5402   -8.2988   23.4552 O   0  0  0  0  0  0  0  0  0  0  0  0
    5.5940   -9.0539   22.8518 C   0  0  0  0  0  0  0  0  0  0  0  0
    5.0378  -10.3443   22.2572 C   0  0  0  0  0  0  0  0  0  0  0  0
    4.1078  -15.3550   26.9862 C   0  0  0  0  0  0  0  0  0  0  0  0
    5.5795  -15.6036   27.0085 C   0  0  0  0  0  0  0  0  0  0  0  0
    3.3087  -15.6871   28.0916 C   0  0  0  0  0  0  0  0  0  0  0  0
  1  2  3  0
  2  3  1  0
  3  4  2  0
  4  5  1  0
  5  6  2  0
  6  7  1  0
  7  8  2  0
  7  9  1  0
  9 10  1  0
 10 11  1  0
 11 12  2  0
 12 13  1  0
 13 14  1  0
 14 15  1  0
 15 16  1  0
  6 17  1  0
 17 18  1  0
 17 19  2  0
 19  3  1  0
 16 11  1  0
M  END
>  <inspiration_score>  (135) 
0.535

>  <HIPPO Pose ID>  (135) 
591800

>  <ref_pdb>  (135) 
x0540b

>  <ref_mols>  (135) 
x0654b

>  <HIPPO Compound ID>  (135) 
409201

>  <energy_score>  (135) 
-43.467786

>  <tags>  (135) 
CpKRS_FrAncestor_bulkdock_iter1,CpKRS_FrAncestor_bulkdock_iter1_cluster_best5,fragmenstein_placed,CpKRS_FrAncestor_bulkdock_iter1_exported,BulkDock Fragalysis export

>  <inchikey>  (135) 
GJMFMXZELSXWHK-UHFFFAOYSA-N

>  <placement_batch>  (135) 
CpKRS_FrAncestor_bulkdock_iter1_cluster_best5

>  <alias>  (135) 
GJMFMXZELSXWHK-UHFFFAOYSA-N-P57

>  <name>  (135) 
GJMFMXZELSXWHK-UHFFFAOYSA-N-P57

>  <smiles>  (135) 
C#Cc1cnc(C(=O)NCC2=CCOCC2)c(C)c1

>  <subsites>  (135) 


>  <distance_score>  (135) 
0.841166

$$$$
KNQZCJSLZFWZCE-UHFFFAOYSA-N-P17
     RDKit          3D

 19 20  0  0  0  0  0  0  0  0999 V2000
   -0.1072  -13.6696   26.1344 C   0  0  0  0  0  0  0  0  0  0  0  0
    1.3054  -14.0665   26.4257 C   0  0  0  0  0  0  0  0  0  0  0  0
    1.6560  -14.8887   27.5005 C   0  0  0  0  0  0  0  0  0  0  0  0
    2.9815  -15.2820   27.6716 C   0  0  0  0  0  0  0  0  0  0  0  0
    3.3146  -16.0317   28.7338 F   0  0  0  0  0  0  0  0  0  0  0  0
    3.9660  -14.8880   26.7779 C   0  0  0  0  0  0  0  0  0  0  0  0
    3.6324  -14.0556   25.7039 C   0  0  0  0  0  0  0  0  0  0  0  0
    4.7387  -13.5298   24.8425 C   0  0  0  0  0  0  0  0  0  0  0  0
    5.8039  -13.5107   25.3120 O   0  0  0  0  0  0  0  0  0  0  0  0
    4.2372  -13.0028   23.4874 N   0  0  0  0  0  0  0  0  0  0  0  0
    4.9169  -12.2599   22.4685 C   0  0  0  0  0  0  0  0  0  0  0  0
    4.9698  -10.7776   22.7550 C   0  0  0  0  0  0  0  0  0  0  0  0
    4.9576   -9.8557   21.7097 C   0  0  0  0  0  0  0  0  0  0  0  0
    5.0636   -8.5040   22.0034 C   0  0  0  0  0  0  0  0  0  0  0  0
    5.1605   -7.9946   23.2439 N   0  0  0  0  0  0  0  0  0  0  0  0
    5.2112   -8.8990   24.2404 C   0  0  0  0  0  0  0  0  0  0  0  0
    5.3428   -8.4370   25.4915 F   0  0  0  0  0  0  0  0  0  0  0  0
    5.1220  -10.2676   24.0468 C   0  0  0  0  0  0  0  0  0  0  0  0
    2.3065  -13.6269   25.5543 C   0  0  0  0  0  0  0  0  0  0  0  0
  1  2  1  0
  2  3  2  0
  3  4  1  0
  4  5  1  0
  4  6  2  0
  6  7  1  0
  7  8  1  0
  8  9  2  0
  8 10  1  0
 10 11  1  0
 11 12  1  0
 12 13  2  0
 13 14  1  0
 14 15  2  0
 15 16  1  0
 16 17  1  0
 16 18  2  0
  7 19  2  0
 19  2  1  0
 18 12  1  0
M  END
>  <inspiration_score>  (136) 
0.882

>  <HIPPO Pose ID>  (136) 
594385

>  <ref_pdb>  (136) 
x0540b

>  <ref_mols>  (136) 
x0434a

>  <HIPPO Compound ID>  (136) 
409975

>  <energy_score>  (136) 
-71.205745

>  <tags>  (136) 
CpKRS_FrAncestor_bulkdock_iter1,CpKRS_FrAncestor_bulkdock_iter1_cluster_best5,fragmenstein_placed,CpKRS_FrAncestor_bulkdock_iter1_exported,BulkDock Fragalysis export

>  <inchikey>  (136) 
KNQZCJSLZFWZCE-UHFFFAOYSA-N

>  <placement_batch>  (136) 
CpKRS_FrAncestor_bulkdock_iter1_cluster_best5

>  <alias>  (136) 
KNQZCJSLZFWZCE-UHFFFAOYSA-N-P17

>  <name>  (136) 
KNQZCJSLZFWZCE-UHFFFAOYSA-N-P17

>  <smiles>  (136) 
Cc1cc(F)cc(C(=O)NCc2ccnc(F)c2)c1

>  <subsites>  (136) 


>  <distance_score>  (136) 
0.39279

$$$$
QMIFLRMLNQIYGO-UHFFFAOYSA-N-P43
     RDKit          3D

 19 20  0  0  0  0  0  0  0  0999 V2000
    4.9293    2.2534   43.5907 C   0  0  0  0  0  0  0  0  0  0  0  0
    4.2661    3.0360   44.2146 C   0  0  0  0  0  0  0  0  0  0  0  0
    3.4949    3.9959   44.9366 C   0  0  0  0  0  0  0  0  0  0  0  0
    3.1136    3.5200   46.1500 N   0  0  0  0  0  0  0  0  0  0  0  0
    2.4673    4.3748   46.9593 C   0  0  0  0  0  0  0  0  0  0  0  0
    2.2250    5.6955   46.6275 C   0  0  0  0  0  0  0  0  0  0  0  0
    2.6817    6.1826   45.4083 C   0  0  0  0  0  0  0  0  0  0  0  0
    3.2869    5.3145   44.5084 C   0  0  0  0  0  0  0  0  0  0  0  0
    3.6399    5.8365   43.2599 N   0  0  0  0  0  0  0  0  0  0  0  0
    3.9687    5.1250   41.9365 C   0  0  0  0  0  0  0  0  0  0  0  0
    3.9233    3.9989   41.6558 O   0  0  0  0  0  0  0  0  0  0  0  0
    4.5091    6.1064   40.9569 C   0  0  0  0  0  0  0  0  0  0  0  0
    3.8843    7.2293   40.5521 C   0  0  0  0  0  0  0  0  0  0  0  0
    2.4709    7.6217   40.9051 C   0  0  0  0  0  0  0  0  0  0  0  0
    2.4094    8.9100   41.7097 C   0  0  0  0  0  0  0  0  0  0  0  0
    4.4510    8.1011   39.6334 O   0  0  0  0  0  0  0  0  0  0  0  0
    5.8404    7.8906   39.3581 C   0  0  0  0  0  0  0  0  0  0  0  0
    6.1254    6.4291   39.0917 C   0  0  0  0  0  0  0  0  0  0  0  0
    5.7881    5.6214   40.3262 C   0  0  0  0  0  0  0  0  0  0  0  0
  1  2  3  0
  2  3  1  0
  3  4  2  0
  4  5  1  0
  5  6  2  0
  6  7  1  0
  7  8  2  0
  8  9  1  0
  9 10  1  0
 10 11  2  0
 10 12  1  0
 12 13  2  0
 13 14  1  0
 14 15  1  0
 13 16  1  0
 16 17  1  0
 17 18  1  0
 18 19  1  0
  8  3  1  0
 19 12  1  0
M  END
>  <inspiration_score>  (137) 
0.647

>  <HIPPO Pose ID>  (137) 
599189

>  <ref_pdb>  (137) 
x0654a

>  <ref_mols>  (137) 
x0606c

>  <HIPPO Compound ID>  (137) 
415020

>  <energy_score>  (137) 
-46.052379

>  <tags>  (137) 
CpKRS_FrAncestor_bulkdock_iter1,CpKRS_FrAncestor_bulkdock_iter1_cluster_best5,fragmenstein_placed,CpKRS_FrAncestor_bulkdock_iter1_exported,BulkDock Fragalysis export

>  <inchikey>  (137) 
QMIFLRMLNQIYGO-UHFFFAOYSA-N

>  <placement_batch>  (137) 
CpKRS_FrAncestor_bulkdock_iter1_cluster_best5

>  <alias>  (137) 
QMIFLRMLNQIYGO-UHFFFAOYSA-N-P43

>  <name>  (137) 
QMIFLRMLNQIYGO-UHFFFAOYSA-N-P43

>  <smiles>  (137) 
C#Cc1ncccc1NC(=O)C1=C(CC)OCCC1

>  <subsites>  (137) 


>  <distance_score>  (137) 
0.743058

$$$$
ZFXAUHJFOYJXCA-UHFFFAOYSA-N-P57
     RDKit          3D

 19 20  0  0  0  0  0  0  0  0999 V2000
    1.1808  -13.3759   25.6579 C   0  0  0  0  0  0  0  0  0  0  0  0
    1.9609  -14.3285   26.5276 C   0  0  0  0  0  0  0  0  0  0  0  0
    1.4044  -14.5888   27.7946 C   0  0  0  0  0  0  0  0  0  0  0  0
    2.0444  -15.3991   28.7229 C   0  0  0  0  0  0  0  0  0  0  0  0
    3.2614  -15.9701   28.3977 C   0  0  0  0  0  0  0  0  0  0  0  0
    3.8327  -15.7246   27.1488 C   0  0  0  0  0  0  0  0  0  0  0  0
    3.2194  -14.8903   26.1877 C   0  0  0  0  0  0  0  0  0  0  0  0
    3.9125  -14.6362   24.8317 C   0  0  0  0  0  0  0  0  0  0  0  0
    3.1991  -15.4417   23.7277 C   0  0  0  0  0  0  0  0  0  0  0  0
    5.3962  -15.0739   24.7994 C   0  0  0  0  0  0  0  0  0  0  0  0
    3.9549  -13.2005   24.5825 N   0  0  0  0  0  0  0  0  0  0  0  0
    3.7133  -12.4034   23.2897 C   0  0  0  0  0  0  0  0  0  0  0  0
    3.3674  -12.7593   22.2382 O   0  0  0  0  0  0  0  0  0  0  0  0
    4.1060  -10.9864   23.5234 C   0  0  0  0  0  0  0  0  0  0  0  0
    3.6536  -10.2529   24.5528 C   0  0  0  0  0  0  0  0  0  0  0  0
    4.0324   -8.8154   24.7249 C   0  0  0  0  0  0  0  0  0  0  0  0
    4.5619   -8.2634   23.5139 O   0  0  0  0  0  0  0  0  0  0  0  0
    5.6009   -9.0824   22.9678 C   0  0  0  0  0  0  0  0  0  0  0  0
    5.0158  -10.4025   22.4836 C   0  0  0  0  0  0  0  0  0  0  0  0
  1  2  1  0
  2  3  2  0
  3  4  1  0
  4  5  2  0
  5  6  1  0
  6  7  2  0
  7  8  1  0
  8  9  1  0
  8 10  1  0
  8 11  1  0
 11 12  1  0
 12 13  2  0
 12 14  1  0
 14 15  2  0
 15 16  1  0
 16 17  1  0
 17 18  1  0
 18 19  1  0
  7  2  1  0
 19 14  1  0
M  END
>  <inspiration_score>  (138) 
0.642

>  <HIPPO Pose ID>  (138) 
617338

>  <ref_pdb>  (138) 
x0602a

>  <ref_mols>  (138) 
x0654b

>  <HIPPO Compound ID>  (138) 
424721

>  <energy_score>  (138) 
-40.194593

>  <tags>  (138) 
CpKRS_FrAncestor_bulkdock_iter1,CpKRS_FrAncestor_bulkdock_iter1_cluster_best5,fragmenstein_placed,CpKRS_FrAncestor_bulkdock_iter1_exported,BulkDock Fragalysis export

>  <inchikey>  (138) 
ZFXAUHJFOYJXCA-UHFFFAOYSA-N

>  <placement_batch>  (138) 
CpKRS_FrAncestor_bulkdock_iter1_cluster_best5

>  <alias>  (138) 
ZFXAUHJFOYJXCA-UHFFFAOYSA-N-P57

>  <name>  (138) 
ZFXAUHJFOYJXCA-UHFFFAOYSA-N-P57

>  <smiles>  (138) 
Cc1ccccc1C(C)(C)NC(=O)C1=CCOCC1

>  <subsites>  (138) 


>  <distance_score>  (138) 
0.675947

$$$$
QKJJPZGHTIKIPE-UHFFFAOYSA-N-P8
     RDKit          3D

 19 20  0  0  0  0  0  0  0  0999 V2000
    1.0250    7.6566   47.0489 C   0  0  0  0  0  0  0  0  0  0  0  0
    1.8153    6.5242   46.4678 C   0  0  0  0  0  0  0  0  0  0  0  0
    2.2430    6.5989   45.1472 C   0  0  0  0  0  0  0  0  0  0  0  0
    2.9096    5.5156   44.5808 C   0  0  0  0  0  0  0  0  0  0  0  0
    3.3373    5.4552   43.1383 C   0  0  0  0  0  0  0  0  0  0  0  0
    3.1112    6.6678   42.2212 C   0  0  0  0  0  0  0  0  0  0  0  0
    2.1494    7.3329   42.2260 O   0  0  0  0  0  0  0  0  0  0  0  0
    4.3128    6.7018   41.3177 N   0  0  0  0  0  0  0  0  0  0  0  0
    4.1204    5.8077   40.1254 C   0  0  0  0  0  0  0  0  0  0  0  0
    5.3771    5.0475   39.7141 C   0  0  0  0  0  0  0  0  0  0  0  0
    6.2885    6.0633   39.1701 C   0  0  0  0  0  0  0  0  0  0  0  0
    5.9706    7.3445   39.3653 C   0  0  0  0  0  0  0  0  0  0  0  0
    4.7119    7.7272   40.1426 C   0  0  2  0  0  0  0  0  0  0  0  0
    5.1569    8.9533   41.0094 C   0  0  0  0  0  0  0  0  0  0  0  0
    3.5813    8.3796   39.2232 C   0  0  0  0  0  0  0  0  0  0  0  0
    2.4703    8.9266   39.9292 O   0  0  0  0  0  0  0  0  0  0  0  0
    3.1478    4.3970   45.3922 C   0  0  0  0  0  0  0  0  0  0  0  0
    2.6970    4.4067   46.7000 C   0  0  0  0  0  0  0  0  0  0  0  0
    2.0361    5.4417   47.2501 N   0  0  0  0  0  0  0  0  0  0  0  0
  1  2  1  0
  2  3  2  0
  3  4  1  0
  4  5  1  0
  5  6  1  0
  6  7  2  0
  6  8  1  0
  8  9  1  0
  9 10  1  0
 10 11  1  0
 11 12  2  0
 12 13  1  0
 13 14  1  1
 13 15  1  0
 15 16  1  0
  4 17  2  0
 17 18  1  0
 18 19  2  0
 19  2  1  0
 13  8  1  0
M  END
>  <inspiration_score>  (139) 
0.461

>  <HIPPO Pose ID>  (139) 
624827

>  <ref_pdb>  (139) 
x0540a

>  <ref_mols>  (139) 
x0419b

>  <HIPPO Compound ID>  (139) 
429484

>  <energy_score>  (139) 
-1729.981585

>  <tags>  (139) 
CpKRS_FrAncestor_bulkdock_iter1,CpKRS_FrAncestor_bulkdock_iter1_cluster_best5,fragmenstein_placed,CpKRS_FrAncestor_bulkdock_iter1_exported,BulkDock Fragalysis export

>  <inchikey>  (139) 
QKJJPZGHTIKIPE-UHFFFAOYSA-N

>  <placement_batch>  (139) 
CpKRS_FrAncestor_bulkdock_iter1_cluster_best5

>  <alias>  (139) 
QKJJPZGHTIKIPE-UHFFFAOYSA-N-P8

>  <name>  (139) 
QKJJPZGHTIKIPE-UHFFFAOYSA-N-P8

>  <smiles>  (139) 
Cc1cc(CC(=O)N2CCC=CC2(C)CO)ccn1

>  <subsites>  (139) 


>  <distance_score>  (139) 
0.820908

$$$$
FKKBRWFJSBKCMX-UHFFFAOYSA-N-P41
     RDKit          3D

 19 20  0  0  0  0  0  0  0  0999 V2000
    0.3419    7.6087   47.5661 C   0  0  0  0  0  0  0  0  0  0  0  0
    1.6995    7.6136   46.8976 C   0  0  0  0  0  0  0  0  0  0  0  0
    2.2709    6.3084   46.4240 C   0  0  0  0  0  0  0  0  0  0  0  0
    2.1576    5.0856   47.0678 C   0  0  0  0  0  0  0  0  0  0  0  0
    2.7548    3.9657   46.4859 C   0  0  0  0  0  0  0  0  0  0  0  0
    3.3697    4.0795   45.2410 C   0  0  0  0  0  0  0  0  0  0  0  0
    3.3931    5.3247   44.6546 C   0  0  0  0  0  0  0  0  0  0  0  0
    3.8242    5.5756   43.3810 N   0  0  0  0  0  0  0  0  0  0  0  0
    4.1216    4.6077   42.2122 C   0  0  0  0  0  0  0  0  0  0  0  0
    4.1193    3.4407   42.1771 O   0  0  0  0  0  0  0  0  0  0  0  0
    4.4465    5.4732   40.9410 C   0  0  1  0  0  0  0  0  0  0  0  0
    3.5407    6.6955   40.7181 C   0  0  0  0  0  0  0  0  0  0  0  0
    3.9175    7.4207   39.4299 C   0  0  0  0  0  0  0  0  0  0  0  0
    5.4135    7.7768   39.4182 C   0  0  0  0  0  0  0  0  0  0  0  0
    5.7923    8.3404   38.0444 C   0  0  0  0  0  0  0  0  0  0  0  0
    5.7011    8.8758   40.4603 C   0  0  0  0  0  0  0  0  0  0  0  0
    6.2103    6.4918   39.7230 C   0  0  0  0  0  0  0  0  0  0  0  0
    5.8050    5.8964   40.9639 O   0  0  0  0  0  0  0  0  0  0  0  0
    2.9258    6.4199   45.2538 N   0  0  0  0  0  0  0  0  0  0  0  0
  1  2  1  0
  2  3  1  0
  3  4  2  0
  4  5  1  0
  5  6  2  0
  6  7  1  0
  7  8  1  0
  8  9  1  0
  9 10  2  0
 11  9  1  1
 11 12  1  0
 12 13  1  0
 13 14  1  0
 14 15  1  0
 14 16  1  0
 14 17  1  0
 17 18  1  0
  7 19  2  0
 19  3  1  0
 18 11  1  0
M  END
>  <inspiration_score>  (140) 
0.688

>  <HIPPO Pose ID>  (140) 
634424

>  <ref_pdb>  (140) 
x0421a

>  <ref_mols>  (140) 
x0606a

>  <HIPPO Compound ID>  (140) 
431860

>  <energy_score>  (140) 
-60.026579

>  <tags>  (140) 
CpKRS_FrAncestor_bulkdock_iter1,CpKRS_FrAncestor_bulkdock_iter1_cluster_best5,fragmenstein_placed,CpKRS_FrAncestor_bulkdock_iter1_exported,BulkDock Fragalysis export

>  <inchikey>  (140) 
FKKBRWFJSBKCMX-UHFFFAOYSA-N

>  <placement_batch>  (140) 
CpKRS_FrAncestor_bulkdock_iter1_cluster_best5

>  <alias>  (140) 
FKKBRWFJSBKCMX-UHFFFAOYSA-N-P41

>  <name>  (140) 
FKKBRWFJSBKCMX-UHFFFAOYSA-N-P41

>  <smiles>  (140) 
CCc1cccc(NC(=O)C2CCC(C)(C)CO2)n1

>  <subsites>  (140) 


>  <distance_score>  (140) 
0.847467

$$$$
CGNRJIAYZXADTR-GFCCVEGCSA-N-P33
     RDKit          3D

 19 20  0  0  0  0  0  0  0  0999 V2000
    7.1681   -7.5411   24.6673 C   0  0  0  0  0  0  0  0  0  0  0  0
    6.1530   -7.8293   24.1002 C   0  0  0  0  0  0  0  0  0  0  0  0
    4.9678   -8.0698   23.2924 C   0  0  1  0  0  0  0  0  0  0  0  0
    5.2627   -7.8461   21.8304 C   0  0  0  0  0  0  0  0  0  0  0  0
    4.5304   -9.4142   23.3596 N   0  0  0  0  0  0  0  0  0  0  0  0
    3.1053  -10.0027   23.4117 C   0  0  0  0  0  0  0  0  0  0  0  0
    2.0711   -9.4710   23.4852 O   0  0  0  0  0  0  0  0  0  0  0  0
    3.2429  -11.5226   23.2345 C   0  0  0  0  0  0  0  0  0  0  0  0
    1.9137  -12.2218   23.5429 C   0  0  0  0  0  0  0  0  0  0  0  0
    1.8785  -12.7168   24.9800 C   0  0  0  0  0  0  0  0  0  0  0  0
    2.9695  -13.6636   25.2167 N   0  0  0  0  0  0  0  0  0  0  0  0
    3.0276  -14.3757   26.4067 C   0  0  0  0  0  0  0  0  0  0  0  0
    4.0725  -15.2544   26.6968 C   0  0  0  0  0  0  0  0  0  0  0  0
    4.2160  -15.8008   27.9590 C   0  0  0  0  0  0  0  0  0  0  0  0
    3.2550  -15.5310   28.9020 C   0  0  0  0  0  0  0  0  0  0  0  0
    2.1308  -14.8406   28.6556 N   0  0  0  0  0  0  0  0  0  0  0  0
    2.0698  -14.2668   27.4237 C   0  0  0  0  0  0  0  0  0  0  0  0
    4.1585  -13.5712   24.3730 C   0  0  0  0  0  0  0  0  0  0  0  0
    4.4139  -12.1355   23.9975 C   0  0  0  0  0  0  0  0  0  0  0  0
  1  2  3  0
  2  3  1  0
  3  4  1  6
  3  5  1  0
  5  6  1  0
  6  7  2  0
  6  8  1  0
  8  9  1  0
  9 10  1  0
 10 11  1  0
 11 12  1  0
 12 13  2  0
 13 14  1  0
 14 15  2  0
 15 16  1  0
 16 17  2  0
 11 18  1  0
 18 19  1  0
 19  8  1  0
 17 12  1  0
M  END
>  <inspiration_score>  (141) 
0.551

>  <HIPPO Pose ID>  (141) 
636425

>  <ref_pdb>  (141) 
x0421a

>  <ref_mols>  (141) 
x0489a

>  <HIPPO Compound ID>  (141) 
409380

>  <energy_score>  (141) 
-358.850482

>  <tags>  (141) 
CpKRS_FrAncestor_bulkdock_iter1,CpKRS_FrAncestor_bulkdock_iter1_cluster_best5,fragmenstein_placed,CpKRS_FrAncestor_bulkdock_iter1_exported,BulkDock Fragalysis export

>  <inchikey>  (141) 
CGNRJIAYZXADTR-UHFFFAOYSA-N

>  <placement_batch>  (141) 
CpKRS_FrAncestor_bulkdock_iter1_cluster_best5

>  <alias>  (141) 
CGNRJIAYZXADTR-GFCCVEGCSA-N-P33

>  <name>  (141) 
CGNRJIAYZXADTR-GFCCVEGCSA-N-P33

>  <smiles>  (141) 
C#C[C@@H](C)NC(=O)C1CCN(c2cccnc2)CC1

>  <subsites>  (141) 


>  <distance_score>  (141) 
0.869612

$$$$
URFKNXQHIOXSHU-NXEZZACHSA-N-P11
     RDKit          3D

 19 20  0  0  0  0  0  0  0  0999 V2000
    3.9006   -8.2302   25.0704 C   0  0  0  0  0  0  0  0  0  0  0  0
    3.8660   -8.6983   23.9665 C   0  0  0  0  0  0  0  0  0  0  0  0
    3.8945   -9.3427   22.6519 C   0  0  2  0  0  0  0  0  0  0  0  0
    3.1006  -10.6297   22.5803 C   0  0  0  0  0  0  0  0  0  0  0  0
    3.7783  -11.7518   23.2027 N   0  0  0  0  0  0  0  0  0  0  0  0
    4.3929  -11.8832   24.5299 C   0  0  0  0  0  0  0  0  0  0  0  0
    4.5507  -11.0944   25.3645 O   0  0  0  0  0  0  0  0  0  0  0  0
    4.7552  -13.3561   24.7707 C   0  0  0  0  0  0  0  0  0  0  0  0
    5.9991  -13.4555   25.3496 F   0  0  0  0  0  0  0  0  0  0  0  0
    4.9058  -13.9844   23.5752 F   0  0  0  0  0  0  0  0  0  0  0  0
    3.7026  -14.0033   25.6498 C   0  0  0  0  0  0  0  0  0  0  0  0
    3.9293  -15.0297   26.6081 C   0  0  0  0  0  0  0  0  0  0  0  0
    2.7046  -15.2859   27.1733 C   0  0  0  0  0  0  0  0  0  0  0  0
    1.8378  -14.4310   26.5693 N   0  0  0  0  0  0  0  0  0  0  0  0
    0.4332  -14.3017   26.8546 C   0  0  0  0  0  0  0  0  0  0  0  0
    2.4004  -13.6357   25.6500 N   0  0  0  0  0  0  0  0  0  0  0  0
    4.8106  -11.3752   22.1524 C   0  0  0  0  0  0  0  0  0  0  0  0
    5.2342   -9.9243   22.3699 C   0  0  1  0  0  0  0  0  0  0  0  0
    5.8372   -9.2420   21.1872 C   0  0  0  0  0  0  0  0  0  0  0  0
  1  2  3  0
  3  2  1  1
  3  4  1  0
  4  5  1  0
  5  6  1  0
  6  7  2  0
  6  8  1  0
  8  9  1  0
  8 10  1  0
  8 11  1  0
 11 12  1  0
 12 13  2  0
 13 14  1  0
 14 15  1  0
 14 16  1  0
  5 17  1  0
 17 18  1  0
 18 19  1  6
 18  3  1  0
 16 11  2  0
M  END
>  <inspiration_score>  (142) 
0.587

>  <HIPPO Pose ID>  (142) 
639537

>  <ref_pdb>  (142) 
x0504c

>  <ref_mols>  (142) 
x0421a

>  <HIPPO Compound ID>  (142) 
433031

>  <energy_score>  (142) 
-294.091252

>  <tags>  (142) 
CpKRS_FrAncestor_bulkdock_iter1,CpKRS_FrAncestor_bulkdock_iter1_cluster_best5,fragmenstein_placed,CpKRS_FrAncestor_bulkdock_iter1_exported,BulkDock Fragalysis export

>  <inchikey>  (142) 
URFKNXQHIOXSHU-UHFFFAOYSA-N

>  <placement_batch>  (142) 
CpKRS_FrAncestor_bulkdock_iter1_cluster_best5

>  <alias>  (142) 
URFKNXQHIOXSHU-NXEZZACHSA-N-P11

>  <name>  (142) 
URFKNXQHIOXSHU-NXEZZACHSA-N-P11

>  <smiles>  (142) 
C#C[C@@H]1CN(C(=O)C(F)(F)c2ccn(C)n2)C[C@H]1C

>  <subsites>  (142) 


>  <distance_score>  (142) 
0.924954

$$$$
DHDPTFOFKWWMJH-UHFFFAOYSA-N-P29
     RDKit          3D

 19 20  0  0  0  0  0  0  0  0999 V2000
    0.2173   10.2935   42.6609 C   0  0  0  0  0  0  0  0  0  0  0  0
    1.1154   11.0021   41.8209 O   0  0  0  0  0  0  0  0  0  0  0  0
    2.2011   10.2398   41.4357 C   0  0  0  0  0  0  0  0  0  0  0  0
    3.0922   10.8862   40.5910 C   0  0  0  0  0  0  0  0  0  0  0  0
    4.1954   10.1859   40.1232 C   0  0  0  0  0  0  0  0  0  0  0  0
    4.3626    8.8631   40.5066 C   0  0  0  0  0  0  0  0  0  0  0  0
    3.4154    8.2997   41.3554 C   0  0  0  0  0  0  0  0  0  0  0  0
    3.5892    6.8717   41.7665 C   0  0  0  0  0  0  0  0  0  0  0  0
    4.1224    6.1325   41.0344 O   0  0  0  0  0  0  0  0  0  0  0  0
    3.0642    6.6537   43.2064 N   0  0  0  0  0  0  0  0  0  0  0  0
    3.1671    5.5488   44.0498 C   0  0  0  0  0  0  0  0  0  0  0  0
    3.7979    4.3813   43.6226 C   0  0  0  0  0  0  0  0  0  0  0  0
    3.9951    3.3101   44.5032 C   0  0  0  0  0  0  0  0  0  0  0  0
    4.7284    2.0964   44.0229 C   0  0  0  0  0  0  0  0  0  0  0  0
    3.4829    3.3896   45.7985 C   0  0  0  0  0  0  0  0  0  0  0  0
    2.7713    4.5199   46.2094 C   0  0  0  0  0  0  0  0  0  0  0  0
    2.0905    4.5081   47.5388 C   0  0  0  0  0  0  0  0  0  0  0  0
    2.6573    5.6167   45.3460 C   0  0  0  0  0  0  0  0  0  0  0  0
    2.3376    8.9592   41.8502 N   0  0  0  0  0  0  0  0  0  0  0  0
  1  2  1  0
  2  3  1  0
  3  4  2  0
  4  5  1  0
  5  6  2  0
  6  7  1  0
  7  8  1  0
  8  9  2  0
  8 10  1  0
 10 11  1  0
 11 12  2  0
 12 13  1  0
 13 14  1  0
 13 15  2  0
 15 16  1  0
 16 17  1  0
 16 18  2  0
  7 19  2  0
 19  3  1  0
 18 11  1  0
M  END
>  <inspiration_score>  (143) 
0.666

>  <HIPPO Pose ID>  (143) 
649208

>  <ref_pdb>  (143) 
x0419a

>  <ref_mols>  (143) 
x0485c

>  <HIPPO Compound ID>  (143) 
439146

>  <energy_score>  (143) 
-270.107801

>  <tags>  (143) 
CpKRS_FrAncestor_bulkdock_iter1,CpKRS_FrAncestor_bulkdock_iter1_cluster_best5,fragmenstein_placed,CpKRS_FrAncestor_bulkdock_iter1_exported,BulkDock Fragalysis export

>  <inchikey>  (143) 
DHDPTFOFKWWMJH-UHFFFAOYSA-N

>  <placement_batch>  (143) 
CpKRS_FrAncestor_bulkdock_iter1_cluster_best5

>  <alias>  (143) 
DHDPTFOFKWWMJH-UHFFFAOYSA-N-P29

>  <name>  (143) 
DHDPTFOFKWWMJH-UHFFFAOYSA-N-P29

>  <smiles>  (143) 
COc1cccc(C(=O)Nc2cc(C)cc(C)c2)n1

>  <subsites>  (143) 


>  <distance_score>  (143) 
0.689176

$$$$
DOYPVVVNQCBZBD-UHFFFAOYSA-N-P43
     RDKit          3D

 19 20  0  0  0  0  0  0  0  0999 V2000
    5.3409    4.0486   39.4980 C   0  0  0  0  0  0  0  0  0  0  0  0
    5.5809    5.4249   40.0637 C   0  0  0  0  0  0  0  0  0  0  0  0
    6.9926    5.3780   40.6144 C   0  0  0  0  0  0  0  0  0  0  0  0
    5.5102    6.3373   38.9471 O   0  0  0  0  0  0  0  0  0  0  0  0
    5.6108    7.7087   39.3351 C   0  0  0  0  0  0  0  0  0  0  0  0
    4.5945    8.0538   40.4204 C   0  0  0  0  0  0  0  0  0  0  0  0
    4.6868    7.1699   41.5503 O   0  0  0  0  0  0  0  0  0  0  0  0
    4.5204    5.8052   41.1069 C   0  0  2  0  0  0  0  0  0  0  0  0
    4.5021    4.8409   42.3138 C   0  0  0  0  0  0  0  0  0  0  0  0
    4.9808    3.7787   42.3335 O   0  0  0  0  0  0  0  0  0  0  0  0
    3.7146    5.6055   43.4039 N   0  0  0  0  0  0  0  0  0  0  0  0
    3.2925    5.2016   44.6509 C   0  0  0  0  0  0  0  0  0  0  0  0
    3.6049    3.9224   45.1258 C   0  0  0  0  0  0  0  0  0  0  0  0
    3.1664    3.5199   46.3795 C   0  0  0  0  0  0  0  0  0  0  0  0
    2.3885    4.3896   47.1204 C   0  0  0  0  0  0  0  0  0  0  0  0
    1.9696    4.0073   48.3269 F   0  0  0  0  0  0  0  0  0  0  0  0
    2.0657    5.6493   46.6322 C   0  0  0  0  0  0  0  0  0  0  0  0
    1.2711    6.4678   47.3279 F   0  0  0  0  0  0  0  0  0  0  0  0
    2.5493    6.0823   45.4141 C   0  0  0  0  0  0  0  0  0  0  0  0
  1  2  1  0
  2  3  1  0
  2  4  1  0
  4  5  1  0
  5  6  1  0
  6  7  1  0
  7  8  1  0
  8  9  1  1
  9 10  2  0
  9 11  1  0
 11 12  1  0
 12 13  2  0
 13 14  1  0
 14 15  2  0
 15 16  1  0
 15 17  1  0
 17 18  1  0
 17 19  2  0
  8  2  1  0
 19 12  1  0
M  END
>  <inspiration_score>  (144) 
0.668

>  <HIPPO Pose ID>  (144) 
659974

>  <ref_pdb>  (144) 
x0421d

>  <ref_mols>  (144) 
x0606c

>  <HIPPO Compound ID>  (144) 
366895

>  <energy_score>  (144) 
-49.411729

>  <tags>  (144) 
CpKRS_FrAncestor_bulkdock_iter1,CpKRS_FrAncestor_bulkdock_iter1_cluster_best5,fragmenstein_placed,CpKRS_FrAncestor_bulkdock_iter1_exported,BulkDock Fragalysis export

>  <inchikey>  (144) 
DOYPVVVNQCBZBD-UHFFFAOYSA-N

>  <placement_batch>  (144) 
CpKRS_FrAncestor_bulkdock_iter1_cluster_best5

>  <alias>  (144) 
DOYPVVVNQCBZBD-UHFFFAOYSA-N-P43

>  <name>  (144) 
DOYPVVVNQCBZBD-UHFFFAOYSA-N-P43

>  <smiles>  (144) 
CC1(C)OCCOC1C(=O)Nc1ccc(F)c(F)c1

>  <subsites>  (144) 


>  <distance_score>  (144) 
0.577764

$$$$
WKRKRIWZIIXHOG-QMMMGPOBSA-N-P17
     RDKit          3D

 19 20  0  0  0  0  0  0  0  0999 V2000
    4.0773  -12.4228   22.0253 C   0  0  0  0  0  0  0  0  0  0  0  0
    4.7489  -11.8123   23.2245 C   0  0  2  0  0  0  0  0  0  0  0  0
    4.0994  -12.3950   24.3666 N   0  0  0  0  0  0  0  0  0  0  0  0
    4.5567  -13.5189   25.3092 C   0  0  0  0  0  0  0  0  0  0  0  0
    5.5646  -14.0989   25.3581 O   0  0  0  0  0  0  0  0  0  0  0  0
    3.4911  -13.9997   26.2427 C   0  0  0  0  0  0  0  0  0  0  0  0
    2.1374  -13.6796   26.1645 C   0  0  0  0  0  0  0  0  0  0  0  0
    1.1954  -14.0850   27.0609 N   0  0  0  0  0  0  0  0  0  0  0  0
    1.6340  -14.9075   28.0426 C   0  0  0  0  0  0  0  0  0  0  0  0
    2.9437  -15.3318   28.1619 C   0  0  0  0  0  0  0  0  0  0  0  0
    3.3169  -16.1335   29.1661 F   0  0  0  0  0  0  0  0  0  0  0  0
    3.8791  -14.8860   27.2517 C   0  0  0  0  0  0  0  0  0  0  0  0
    4.8423  -10.3147   23.2110 C   0  0  0  0  0  0  0  0  0  0  0  0
    4.7500   -9.5470   22.0480 C   0  0  0  0  0  0  0  0  0  0  0  0
    4.9060   -8.2012   22.0006 N   0  0  0  0  0  0  0  0  0  0  0  0
    5.2242   -7.5996   23.1680 C   0  0  0  0  0  0  0  0  0  0  0  0
    5.3691   -8.2657   24.3626 C   0  0  0  0  0  0  0  0  0  0  0  0
    5.6914   -7.6098   25.4825 F   0  0  0  0  0  0  0  0  0  0  0  0
    5.1815   -9.6323   24.3784 C   0  0  0  0  0  0  0  0  0  0  0  0
  2  1  1  6
  2  3  1  0
  3  4  1  0
  4  5  2  0
  4  6  1  0
  6  7  2  0
  7  8  1  0
  8  9  2  0
  9 10  1  0
 10 11  1  0
 10 12  2  0
  2 13  1  0
 13 14  2  0
 14 15  1  0
 15 16  2  0
 16 17  1  0
 17 18  1  0
 17 19  2  0
 12  6  1  0
 19 13  1  0
M  END
>  <inspiration_score>  (145) 
0.826

>  <HIPPO Pose ID>  (145) 
662392

>  <ref_pdb>  (145) 
x0421d

>  <ref_mols>  (145) 
x0434a

>  <HIPPO Compound ID>  (145) 
367779

>  <energy_score>  (145) 
-258.411026

>  <tags>  (145) 
CpKRS_FrAncestor_bulkdock_iter1,CpKRS_FrAncestor_bulkdock_iter1_cluster_best5,fragmenstein_placed,CpKRS_FrAncestor_bulkdock_iter1_exported,BulkDock Fragalysis export

>  <inchikey>  (145) 
WKRKRIWZIIXHOG-UHFFFAOYSA-N

>  <placement_batch>  (145) 
CpKRS_FrAncestor_bulkdock_iter1_cluster_best5

>  <alias>  (145) 
WKRKRIWZIIXHOG-QMMMGPOBSA-N-P17

>  <name>  (145) 
WKRKRIWZIIXHOG-QMMMGPOBSA-N-P17

>  <smiles>  (145) 
C[C@H](NC(=O)c1cncc(F)c1)c1cncc(F)c1

>  <subsites>  (145) 


>  <distance_score>  (145) 
0.600725

$$$$
AMHMRMYWJWEJNF-SFYZADRCSA-N-P13
     RDKit          3D

 19 20  0  0  0  0  0  0  0  0999 V2000
    4.9813  -13.8059   23.9840 O   0  0  0  0  0  0  0  0  0  0  0  0
    4.1698  -13.0992   24.4223 C   0  0  0  0  0  0  0  0  0  0  0  0
    4.0210  -11.5739   24.3257 N   0  0  0  0  0  0  0  0  0  0  0  0
    4.8909  -10.5861   23.7495 C   0  0  1  0  0  0  0  0  0  0  0  0
    5.0309  -10.7269   22.2378 C   0  0  0  0  0  0  0  0  0  0  0  0
    5.5257   -9.3595   21.7647 C   0  0  0  0  0  0  0  0  0  0  0  0
    5.4658   -8.4298   22.9785 C   0  0  0  0  0  0  0  0  0  0  0  0
    4.4986   -9.1204   23.9254 C   0  0  1  0  0  0  0  0  0  0  0  0
    3.2318   -8.8940   23.4647 F   0  0  0  0  0  0  0  0  0  0  0  0
    3.1175  -13.6367   25.2571 C   0  0  0  0  0  0  0  0  0  0  0  0
    3.2702  -14.3990   26.4017 C   0  0  0  0  0  0  0  0  0  0  0  0
    1.9720  -14.6147   26.8808 C   0  0  0  0  0  0  0  0  0  0  0  0
    1.0473  -14.0809   26.0804 N   0  0  0  0  0  0  0  0  0  0  0  0
    1.7631  -13.5907   25.0433 N   0  0  0  0  0  0  0  0  0  0  0  0
    1.0510  -13.1305   23.8694 C   0  0  0  0  0  0  0  0  0  0  0  0
    0.5373  -14.2860   23.0468 C   0  0  0  0  0  0  0  0  0  0  0  0
    1.5358  -15.0826   22.6051 F   0  0  0  0  0  0  0  0  0  0  0  0
   -0.1042  -13.8274   21.9421 F   0  0  0  0  0  0  0  0  0  0  0  0
   -0.3512  -15.0659   23.7041 F   0  0  0  0  0  0  0  0  0  0  0  0
  1  2  2  0
  2  3  1  0
  4  3  1  6
  4  5  1  0
  5  6  1  0
  6  7  1  0
  7  8  1  0
  8  9  1  6
  2 10  1  0
 10 11  2  0
 11 12  1  0
 12 13  2  0
 13 14  1  0
 14 15  1  0
 15 16  1  0
 16 17  1  0
 16 18  1  0
 16 19  1  0
  8  4  1  0
 14 10  1  0
M  END
>  <inspiration_score>  (146) 
0.632

>  <HIPPO Pose ID>  (146) 
665927

>  <ref_pdb>  (146) 
x0421d

>  <ref_mols>  (146) 
x0421c

>  <HIPPO Compound ID>  (146) 
368921

>  <energy_score>  (146) 
-274.321264

>  <tags>  (146) 
CpKRS_FrAncestor_bulkdock_iter1,CpKRS_FrAncestor_bulkdock_iter1_cluster_best5,fragmenstein_placed,CpKRS_FrAncestor_bulkdock_iter1_exported,BulkDock Fragalysis export

>  <inchikey>  (146) 
AMHMRMYWJWEJNF-UHFFFAOYSA-N

>  <placement_batch>  (146) 
CpKRS_FrAncestor_bulkdock_iter1_cluster_best5

>  <alias>  (146) 
AMHMRMYWJWEJNF-SFYZADRCSA-N-P13

>  <name>  (146) 
AMHMRMYWJWEJNF-SFYZADRCSA-N-P13

>  <smiles>  (146) 
O=C(N[C@H]1CCC[C@H]1F)c1ccnn1CC(F)(F)F

>  <subsites>  (146) 


>  <distance_score>  (146) 
0.534689

$$$$
C385202-P3
     RDKit          3D

 14 15  0  0  0  0  0  0  0  0999 V2000
    1.3413    5.7805   46.0865 C   0  0  0  0  0  0  0  0  0  0  0  0
    2.3886    5.2997   45.1527 C   0  0  0  0  0  0  0  0  0  0  0  0
    3.3255    4.3045   45.3393 C   0  0  0  0  0  0  0  0  0  0  0  0
    4.1877    4.0949   44.2859 N   0  0  0  0  0  0  0  0  0  0  0  0
    3.9083    4.9391   43.3283 C   0  0  0  0  0  0  0  0  0  0  0  0
    4.6003    5.1353   42.1851 N   0  0  0  0  0  0  0  0  0  0  0  0
    5.8988    4.4598   41.6636 C   0  0  0  0  0  0  0  0  0  0  0  0
    6.6095    3.6867   42.1776 O   0  0  0  0  0  0  0  0  0  0  0  0
    6.2153    5.0197   40.2695 C   0  0  0  0  0  0  0  0  0  0  0  0
    5.0957    4.7463   39.2758 C   0  0  0  0  0  0  0  0  0  0  0  0
    4.6964    6.1006   38.7845 C   0  0  0  0  0  0  0  0  0  0  0  0
    5.4519    7.0697   39.2908 C   0  0  0  0  0  0  0  0  0  0  0  0
    6.4667    6.5260   40.2240 C   0  0  0  0  0  0  0  0  0  0  0  0
    2.5829    5.9702   43.5818 S   0  0  0  0  0  0  0  0  0  0  0  0
  1  2  1  0
  2  3  2  0
  3  4  1  0
  4  5  2  0
  5  6  1  0
  6  7  1  0
  7  8  2  0
  7  9  1  0
  9 10  1  0
 10 11  1  0
 11 12  2  0
 12 13  1  0
  5 14  1  0
 14  2  1  0
 13  9  1  0
M  END
>  <inspiration_score>  (147) 
0.684

>  <HIPPO Pose ID>  (147) 
699816

>  <ref_pdb>  (147) 
x0602b

>  <ref_mols>  (147) 
x0407c

>  <HIPPO Compound ID>  (147) 
385202

>  <energy_score>  (147) 
-79.425112

>  <tags>  (147) 
CpKRS_FrAncestor_bulkdock_iter1,CpKRS_FrAncestor_bulkdock_iter1_cluster_best5,fragmenstein_placed,CpKRS_FrAncestor_bulkdock_iter1_exported,BulkDock Fragalysis export

>  <inchikey>  (147) 
GBKHGWVIAPYSAP-UHFFFAOYSA-N

>  <placement_batch>  (147) 
CpKRS_FrAncestor_bulkdock_iter1_cluster_best5

>  <alias>  (147) 
C385202-P3

>  <name>  (147) 
C385202-P3

>  <smiles>  (147) 
Cc1cnc(NC(=O)C2CC=CC2)s1

>  <subsites>  (147) 


>  <distance_score>  (147) 
0.605443

$$$$
DYYLIWZIPVMRPE-UHFFFAOYSA-N-P58
     RDKit          3D

 19 20  0  0  0  0  0  0  0  0999 V2000
    5.6795   -8.8773   21.2307 C   0  0  0  0  0  0  0  0  0  0  0  0
    5.0310   -9.3078   22.4753 C   0  0  0  0  0  0  0  0  0  0  0  0
    4.3301  -10.5042   22.4742 C   0  0  0  0  0  0  0  0  0  0  0  0
    3.5730  -10.8611   23.5748 C   0  0  0  0  0  0  0  0  0  0  0  0
    2.6683  -12.0509   23.4394 C   0  0  0  0  0  0  0  0  0  0  0  0
    2.7788  -12.9728   24.5095 N   0  0  0  0  0  0  0  0  0  0  0  0
    3.9835  -13.8219   24.9847 C   0  0  0  0  0  0  0  0  0  0  0  0
    5.0898  -13.8357   24.6171 O   0  0  0  0  0  0  0  0  0  0  0  0
    3.3646  -14.7737   26.0348 C   0  0  1  0  0  0  0  0  0  0  0  0
    4.4370  -15.4216   26.8951 C   0  0  0  0  0  0  0  0  0  0  0  0
    3.8662  -16.3375   27.9604 C   0  0  0  0  0  0  0  0  0  0  0  0
    2.5677  -15.5970   28.9702 S   0  0  0  0  0  0  0  0  0  0  0  0
    1.5847  -14.9141   27.6499 C   0  0  0  0  0  0  0  0  0  0  0  0
    2.3542  -14.0167   26.8258 N   0  0  0  0  0  0  0  0  0  0  0  0
    3.6220  -10.0399   24.7137 C   0  0  0  0  0  0  0  0  0  0  0  0
    4.4174   -8.8771   24.7575 C   0  0  0  0  0  0  0  0  0  0  0  0
    4.5049   -7.9634   25.9421 C   0  0  0  0  0  0  0  0  0  0  0  0
    5.1203   -8.5313   23.6182 C   0  0  0  0  0  0  0  0  0  0  0  0
    5.8463   -7.4029   23.5944 F   0  0  0  0  0  0  0  0  0  0  0  0
  1  2  1  0
  2  3  2  0
  3  4  1  0
  4  5  1  0
  5  6  1  0
  6  7  1  0
  7  8  2  0
  9  7  1  6
  9 10  1  0
 10 11  1  0
 11 12  1  0
 12 13  1  0
 13 14  1  0
  4 15  2  0
 15 16  1  0
 16 17  1  0
 16 18  2  0
 18 19  1  0
 18  2  1  0
 14  9  1  0
M  END
>  <inspiration_score>  (148) 
0.65

>  <HIPPO Pose ID>  (148) 
714865

>  <ref_pdb>  (148) 
x0407b

>  <ref_mols>  (148) 
x0654c

>  <HIPPO Compound ID>  (148) 
396338

>  <energy_score>  (148) 
-37.440512

>  <tags>  (148) 
CpKRS_FrAncestor_bulkdock_iter1,CpKRS_FrAncestor_bulkdock_iter1_cluster_best5,fragmenstein_placed,CpKRS_FrAncestor_bulkdock_iter1_exported,BulkDock Fragalysis export

>  <inchikey>  (148) 
DYYLIWZIPVMRPE-UHFFFAOYSA-N

>  <placement_batch>  (148) 
CpKRS_FrAncestor_bulkdock_iter1_cluster_best5

>  <alias>  (148) 
DYYLIWZIPVMRPE-UHFFFAOYSA-N-P58

>  <name>  (148) 
DYYLIWZIPVMRPE-UHFFFAOYSA-N-P58

>  <smiles>  (148) 
Cc1cc(CNC(=O)C2CCSCN2)cc(C)c1F

>  <subsites>  (148) 


>  <distance_score>  (148) 
0.64779

$$$$
SFQWEEISEWOBFN-LHIURRSHSA-N-P44
     RDKit          3D

 19 20  0  0  0  0  0  0  0  0999 V2000
  -13.2453  -15.7943   46.7175 C   0  0  0  0  0  0  0  0  0  0  0  0
  -12.7757  -14.7268   45.7321 C   0  0  1  0  0  0  0  0  0  0  0  0
  -11.5782  -14.0839   46.2344 N   0  0  0  0  0  0  0  0  0  0  0  0
  -11.0630  -12.6484   46.0484 C   0  0  0  0  0  0  0  0  0  0  0  0
  -11.4785  -11.7756   45.3994 O   0  0  0  0  0  0  0  0  0  0  0  0
   -9.8690  -12.4070   46.8871 C   0  0  0  0  0  0  0  0  0  0  0  0
   -8.9901  -11.2849   46.7634 C   0  0  0  0  0  0  0  0  0  0  0  0
   -8.0182  -11.3808   47.7326 C   0  0  0  0  0  0  0  0  0  0  0  0
   -8.2536  -12.5267   48.4524 N   0  0  0  0  0  0  0  0  0  0  0  0
   -7.4586  -12.9825   49.5946 C   0  0  0  0  0  0  0  0  0  0  0  0
   -7.8673  -12.3672   50.7363 F   0  0  0  0  0  0  0  0  0  0  0  0
   -6.1418  -12.6992   49.4401 F   0  0  0  0  0  0  0  0  0  0  0  0
   -7.5780  -14.3178   49.8025 F   0  0  0  0  0  0  0  0  0  0  0  0
   -9.3868  -13.1431   47.9617 C   0  0  0  0  0  0  0  0  0  0  0  0
  -12.5977  -15.2046   44.2594 C   0  0  1  0  0  0  0  0  0  0  0  0
  -11.5633  -16.3186   44.0699 C   0  0  0  0  0  0  0  0  0  0  0  0
  -12.3045  -17.4676   43.4077 C   0  0  0  0  0  0  0  0  0  0  0  0
  -13.7656  -17.1695   43.6447 C   0  0  0  0  0  0  0  0  0  0  0  0
  -13.8256  -15.7150   43.6225 N   0  0  0  0  0  0  0  0  0  0  0  0
  2  1  1  1
  2  3  1  0
  3  4  1  0
  4  5  2  0
  4  6  1  0
  6  7  1  0
  7  8  2  0
  8  9  1  0
  9 10  1  0
 10 11  1  0
 10 12  1  0
 10 13  1  0
  9 14  1  0
  2 15  1  0
 15 16  1  1
 16 17  1  0
 17 18  1  0
 18 19  1  0
 14  6  2  0
 19 15  1  0
M  END
>  <inspiration_score>  (149) 
0.701

>  <HIPPO Pose ID>  (149) 
715910

>  <ref_pdb>  (149) 
x0407b

>  <ref_mols>  (149) 
x0502b

>  <HIPPO Compound ID>  (149) 
379842

>  <energy_score>  (149) 
-336.894686

>  <tags>  (149) 
CpKRS_FrAncestor_bulkdock_iter1,CpKRS_FrAncestor_bulkdock_iter1_cluster_best5,fragmenstein_placed,CpKRS_FrAncestor_bulkdock_iter1_exported,BulkDock Fragalysis export

>  <inchikey>  (149) 
SFQWEEISEWOBFN-UHFFFAOYSA-N

>  <placement_batch>  (149) 
CpKRS_FrAncestor_bulkdock_iter1_cluster_best5

>  <alias>  (149) 
SFQWEEISEWOBFN-LHIURRSHSA-N-P44

>  <name>  (149) 
SFQWEEISEWOBFN-LHIURRSHSA-N-P44

>  <smiles>  (149) 
CC(NC(=O)c1ccn(C(F)(F)F)c1)[C@H]1CCCN1

>  <subsites>  (149) 


>  <distance_score>  (149) 
0.531005

$$$$
YKFRBQTXVBBELV-UHFFFAOYSA-N-P42
     RDKit          3D

 19 20  0  0  0  0  0  0  0  0999 V2000
    2.9098    8.2596   44.0799 C   0  0  0  0  0  0  0  0  0  0  0  0
    2.9771    7.5665   45.2249 C   0  0  0  0  0  0  0  0  0  0  0  0
    2.8251    6.1125   45.4443 C   0  0  0  0  0  0  0  0  0  0  0  0
    2.2364    5.7376   46.6604 C   0  0  0  0  0  0  0  0  0  0  0  0
    2.2379    4.4173   47.1005 C   0  0  0  0  0  0  0  0  0  0  0  0
    2.8139    3.4418   46.3095 C   0  0  0  0  0  0  0  0  0  0  0  0
    3.2828    3.7665   45.0402 C   0  0  0  0  0  0  0  0  0  0  0  0
    3.2710    5.0911   44.5969 C   0  0  0  0  0  0  0  0  0  0  0  0
    3.7957    5.3894   43.3477 N   0  0  0  0  0  0  0  0  0  0  0  0
    4.1282    4.4643   42.1486 C   0  0  0  0  0  0  0  0  0  0  0  0
    3.9406    3.3243   42.0004 O   0  0  0  0  0  0  0  0  0  0  0  0
    4.8928    5.4002   41.1827 C   0  0  1  0  0  0  0  0  0  0  0  0
    4.9319    4.9007   39.7471 C   0  0  0  0  0  0  0  0  0  0  0  0
    5.6350    5.8624   38.8706 N   0  0  0  0  0  0  0  0  0  0  0  0
    5.1041    7.2315   38.9859 C   0  0  0  0  0  0  0  0  0  0  0  0
    3.6975    7.3395   38.3690 C   0  0  0  0  0  0  0  0  0  0  0  0
    6.0458    8.1871   38.2375 C   0  0  0  0  0  0  0  0  0  0  0  0
    5.0797    7.6514   40.4707 C   0  0  0  0  0  0  0  0  0  0  0  0
    4.3355    6.7337   41.2802 O   0  0  0  0  0  0  0  0  0  0  0  0
  1  2  2  0
  2  3  1  0
  3  4  2  0
  4  5  1  0
  5  6  2  0
  6  7  1  0
  7  8  2  0
  8  9  1  0
  9 10  1  0
 10 11  2  0
 12 10  1  1
 12 13  1  0
 13 14  1  0
 14 15  1  0
 15 16  1  0
 15 17  1  0
 15 18  1  0
 18 19  1  0
  8  3  1  0
 19 12  1  0
M  END
>  <inspiration_score>  (150) 
0.831

>  <HIPPO Pose ID>  (150) 
717062

>  <ref_pdb>  (150) 
x0407b

>  <ref_mols>  (150) 
x0606b

>  <HIPPO Compound ID>  (150) 
396766

>  <energy_score>  (150) 
-61.325508

>  <tags>  (150) 
CpKRS_FrAncestor_bulkdock_iter1,CpKRS_FrAncestor_bulkdock_iter1_cluster_best5,fragmenstein_placed,CpKRS_FrAncestor_bulkdock_iter1_exported,BulkDock Fragalysis export

>  <inchikey>  (150) 
YKFRBQTXVBBELV-UHFFFAOYSA-N

>  <placement_batch>  (150) 
CpKRS_FrAncestor_bulkdock_iter1_cluster_best5

>  <alias>  (150) 
YKFRBQTXVBBELV-UHFFFAOYSA-N-P42

>  <name>  (150) 
YKFRBQTXVBBELV-UHFFFAOYSA-N-P42

>  <smiles>  (150) 
C=Cc1ccccc1NC(=O)C1CNC(C)(C)CO1

>  <subsites>  (150) 


>  <distance_score>  (150) 
0.450323

$$$$
JSHXHGUFQOSJHT-UHFFFAOYSA-N-P9
     RDKit          3D

 20 21  0  0  0  0  0  0  0  0999 V2000
    5.1967   -8.0107   21.2966 C   0  0  0  0  0  0  0  0  0  0  0  0
    6.0821   -8.8333   22.0304 O   0  0  0  0  0  0  0  0  0  0  0  0
    5.3449   -9.7255   22.7409 C   0  0  0  0  0  0  0  0  0  0  0  0
    5.3644  -11.0511   22.3661 C   0  0  0  0  0  0  0  0  0  0  0  0
    4.6878  -11.9948   23.1395 C   0  0  0  0  0  0  0  0  0  0  0  0
    4.6362  -13.3770   22.5913 C   0  0  0  0  0  0  0  0  0  0  0  0
    4.0125  -11.5890   24.2957 C   0  0  0  0  0  0  0  0  0  0  0  0
    3.5245  -12.4878   25.2352 N   0  0  0  0  0  0  0  0  0  0  0  0
    4.0653  -13.8909   25.6765 C   0  0  0  0  0  0  0  0  0  0  0  0
    4.9560  -14.5266   25.2580 O   0  0  0  0  0  0  0  0  0  0  0  0
    3.1056  -14.3795   26.7591 C   0  0  1  0  0  0  0  0  0  0  0  0
    2.7936  -13.3654   27.6227 F   0  0  0  0  0  0  0  0  0  0  0  0
    1.7693  -14.7480   26.1519 C   0  0  0  0  0  0  0  0  0  0  0  0
    0.9365  -15.5603   27.1257 C   0  0  0  0  0  0  0  0  0  0  0  0
    1.5230  -15.6119   28.5293 C   0  0  0  0  0  0  0  0  0  0  0  0
    2.8329  -16.1632   28.5104 O   0  0  0  0  0  0  0  0  0  0  0  0
    3.7048  -15.5586   27.5352 C   0  0  0  0  0  0  0  0  0  0  0  0
    3.8670  -10.2326   24.5701 C   0  0  0  0  0  0  0  0  0  0  0  0
    4.5892   -9.3181   23.8274 C   0  0  0  0  0  0  0  0  0  0  0  0
    4.5596   -8.0211   24.1583 F   0  0  0  0  0  0  0  0  0  0  0  0
  1  2  1  0
  2  3  1  0
  3  4  2  0
  4  5  1  0
  5  6  1  0
  5  7  2  0
  7  8  1  0
  8  9  1  0
  9 10  2  0
  9 11  1  0
 11 12  1  1
 11 13  1  0
 13 14  1  0
 14 15  1  0
 15 16  1  0
 16 17  1  0
  7 18  1  0
 18 19  2  0
 19 20  1  0
 19  3  1  0
 17 11  1  0
M  END
>  <inspiration_score>  (151) 
0.722

>  <HIPPO Pose ID>  (151) 
733628

>  <ref_pdb>  (151) 
x0654a

>  <ref_mols>  (151) 
x0419a

>  <HIPPO Compound ID>  (151) 
402737

>  <energy_score>  (151) 
-74.237058

>  <tags>  (151) 
CpKRS_FrAncestor_bulkdock_iter1,CpKRS_FrAncestor_bulkdock_iter1_cluster_best5,fragmenstein_placed,CpKRS_FrAncestor_bulkdock_iter1_exported,BulkDock Fragalysis export

>  <inchikey>  (151) 
JSHXHGUFQOSJHT-UHFFFAOYSA-N

>  <placement_batch>  (151) 
CpKRS_FrAncestor_bulkdock_iter1_cluster_best5

>  <alias>  (151) 
JSHXHGUFQOSJHT-UHFFFAOYSA-N-P9

>  <name>  (151) 
JSHXHGUFQOSJHT-UHFFFAOYSA-N-P9

>  <smiles>  (151) 
COc1cc(C)c(NC(=O)C2(F)CCCOC2)cc1F

>  <subsites>  (151) 


>  <distance_score>  (151) 
0.8147

$$$$
LKFQUJFBJURFFU-UHFFFAOYSA-N-P34
     RDKit          3D

 20 21  0  0  0  0  0  0  0  0999 V2000
    1.3346  -14.8273   29.2346 C   0  0  0  0  0  0  0  0  0  0  0  0
    2.1007  -14.5751   27.9862 C   0  0  0  0  0  0  0  0  0  0  0  0
    1.6941  -13.6596   27.0206 C   0  0  0  0  0  0  0  0  0  0  0  0
    2.4503  -13.3068   25.9567 N   0  0  0  0  0  0  0  0  0  0  0  0
    3.6894  -13.8977   25.9200 C   0  0  0  0  0  0  0  0  0  0  0  0
    4.6304  -13.3955   24.8487 C   0  0  0  0  0  0  0  0  0  0  0  0
    5.6962  -13.8498   24.7639 O   0  0  0  0  0  0  0  0  0  0  0  0
    3.9278  -12.3442   23.9843 N   0  0  0  0  0  0  0  0  0  0  0  0
    4.4176  -11.5612   22.8918 C   0  0  0  0  0  0  0  0  0  0  0  0
    4.3303  -10.0400   23.0284 C   0  0  2  0  0  0  0  0  0  0  0  0
    2.8768   -9.6218   23.3219 C   0  0  0  0  0  0  0  0  0  0  0  0
    4.8726   -9.4312   21.7240 C   0  0  0  0  0  0  0  0  0  0  0  0
    5.1560   -7.9931   22.0877 C   0  0  0  0  0  0  0  0  0  0  0  0
    5.7581   -8.0658   23.4747 C   0  0  0  0  0  0  0  0  0  0  0  0
    5.2808   -9.3923   24.0414 C   0  0  0  0  0  0  0  0  0  0  0  0
    6.3536  -10.1707   24.2809 F   0  0  0  0  0  0  0  0  0  0  0  0
    4.6818   -9.1371   25.2164 F   0  0  0  0  0  0  0  0  0  0  0  0
    4.0987  -14.8297   26.8783 C   0  0  0  0  0  0  0  0  0  0  0  0
    5.4434  -15.4627   26.9164 C   0  0  0  0  0  0  0  0  0  0  0  0
    3.2901  -15.1953   27.9123 N   0  0  0  0  0  0  0  0  0  0  0  0
  1  2  1  0
  2  3  2  0
  3  4  1  0
  4  5  2  0
  5  6  1  0
  6  7  2  0
  6  8  1  0
  8  9  1  0
  9 10  1  0
 10 11  1  1
 10 12  1  0
 12 13  1  0
 13 14  1  0
 14 15  1  0
 15 16  1  0
 15 17  1  0
  5 18  1  0
 18 19  1  0
 18 20  2  0
 20  2  1  0
 15 10  1  0
M  END
>  <inspiration_score>  (152) 
0.87

>  <HIPPO Pose ID>  (152) 
739919

>  <ref_pdb>  (152) 
x0485b

>  <ref_mols>  (152) 
x0492a

>  <HIPPO Compound ID>  (152) 
604060

>  <energy_score>  (152) 
-58.086682

>  <tags>  (152) 
CpKRS_FrAncestor_bulkdock_iter1,CpKRS_FrAncestor_bulkdock_iter1_cluster_best5,fragmenstein_placed,CpKRS_FrAncestor_bulkdock_iter1_exported,BulkDock Fragalysis export

>  <inchikey>  (152) 
LKFQUJFBJURFFU-UHFFFAOYSA-N

>  <placement_batch>  (152) 
CpKRS_FrAncestor_bulkdock_iter1_cluster_best5

>  <alias>  (152) 
LKFQUJFBJURFFU-UHFFFAOYSA-N-P34

>  <name>  (152) 
LKFQUJFBJURFFU-UHFFFAOYSA-N-P34

>  <smiles>  (152) 
Cc1cnc(C(=O)NCC2(C)CCCC2(F)F)c(C)n1

>  <subsites>  (152) 


>  <distance_score>  (152) 
0.50685

$$$$
JRVKCGMDFUYSRU-UHFFFAOYSA-N-P10
     RDKit          3D

 20 21  0  0  0  0  0  0  0  0999 V2000
    2.0084  -16.2862   25.3626 C   0  0  0  0  0  0  0  0  0  0  0  0
    3.0035  -15.2221   25.8501 C   0  0  2  0  0  0  0  0  0  0  0  0
    3.8316  -14.7518   24.6105 C   0  0  0  0  0  0  0  0  0  0  0  0
    4.3643  -15.4901   23.8746 O   0  0  0  0  0  0  0  0  0  0  0  0
    3.8064  -13.1920   24.6350 N   0  0  0  0  0  0  0  0  0  0  0  0
    4.3316  -12.2670   23.7399 C   0  0  0  0  0  0  0  0  0  0  0  0
    4.9213  -12.6412   22.5432 C   0  0  0  0  0  0  0  0  0  0  0  0
    5.4293  -11.7571   21.6485 N   0  0  0  0  0  0  0  0  0  0  0  0
    5.3666  -10.4483   21.9634 C   0  0  0  0  0  0  0  0  0  0  0  0
    4.8088   -9.9693   23.1360 C   0  0  0  0  0  0  0  0  0  0  0  0
    4.7439   -8.4977   23.4026 C   0  0  0  0  0  0  0  0  0  0  0  0
    5.6481   -8.0547   24.5380 C   0  0  0  0  0  0  0  0  0  0  0  0
    5.0692   -7.7375   22.3130 F   0  0  0  0  0  0  0  0  0  0  0  0
    3.4610   -8.1398   23.7152 F   0  0  0  0  0  0  0  0  0  0  0  0
    4.2622  -10.9061   24.0277 C   0  0  0  0  0  0  0  0  0  0  0  0
    4.0173  -15.7859   26.8677 C   0  0  0  0  0  0  0  0  0  0  0  0
    3.4485  -15.8946   28.2535 C   0  0  0  0  0  0  0  0  0  0  0  0
    2.3201  -15.2530   28.5825 C   0  0  0  0  0  0  0  0  0  0  0  0
    1.5743  -14.3913   27.6145 C   0  0  0  0  0  0  0  0  0  0  0  0
    2.3100  -14.0965   26.4290 O   0  0  0  0  0  0  0  0  0  0  0  0
  2  1  1  6
  2  3  1  0
  3  4  2  0
  3  5  1  0
  5  6  1  0
  6  7  2  0
  7  8  1  0
  8  9  2  0
  9 10  1  0
 10 11  1  0
 11 12  1  0
 11 13  1  0
 11 14  1  0
 10 15  2  0
  2 16  1  0
 16 17  1  0
 17 18  2  0
 18 19  1  0
 19 20  1  0
 20  2  1  0
 15  6  1  0
M  END
>  <inspiration_score>  (153) 
0.592

>  <HIPPO Pose ID>  (153) 
740240

>  <ref_pdb>  (153) 
x0485b

>  <ref_mols>  (153) 
x0419c

>  <HIPPO Compound ID>  (153) 
604194

>  <energy_score>  (153) 
-54.495513

>  <tags>  (153) 
CpKRS_FrAncestor_bulkdock_iter1,CpKRS_FrAncestor_bulkdock_iter1_cluster_best5,fragmenstein_placed,CpKRS_FrAncestor_bulkdock_iter1_exported,BulkDock Fragalysis export

>  <inchikey>  (153) 
JRVKCGMDFUYSRU-UHFFFAOYSA-N

>  <placement_batch>  (153) 
CpKRS_FrAncestor_bulkdock_iter1_cluster_best5

>  <alias>  (153) 
JRVKCGMDFUYSRU-UHFFFAOYSA-N-P10

>  <name>  (153) 
JRVKCGMDFUYSRU-UHFFFAOYSA-N-P10

>  <smiles>  (153) 
CC1(C(=O)Nc2cncc(C(C)(F)F)c2)CC=CCO1

>  <subsites>  (153) 


>  <distance_score>  (153) 
0.711703

$$$$
IMKUAKHSVPCQMC-UHFFFAOYSA-N-P30
     RDKit          3D

 20 21  0  0  0  0  0  0  0  0999 V2000
    5.7092  -15.7075   26.9198 C   0  0  0  0  0  0  0  0  0  0  0  0
    5.2703  -14.3861   26.7164 O   0  0  0  0  0  0  0  0  0  0  0  0
    3.9150  -14.2624   26.8058 C   0  0  0  0  0  0  0  0  0  0  0  0
    3.1722  -14.8479   27.8329 C   0  0  0  0  0  0  0  0  0  0  0  0
    1.8106  -14.5880   27.9251 C   0  0  0  0  0  0  0  0  0  0  0  0
    1.1954  -13.7757   26.9757 C   0  0  0  0  0  0  0  0  0  0  0  0
   -0.1281  -13.5675   27.0478 F   0  0  0  0  0  0  0  0  0  0  0  0
    1.9204  -13.1759   25.9589 C   0  0  0  0  0  0  0  0  0  0  0  0
    3.2927  -13.4148   25.8891 C   0  0  0  0  0  0  0  0  0  0  0  0
    4.0940  -12.7996   24.8070 C   0  0  0  0  0  0  0  0  0  0  0  0
    4.6519  -13.4789   24.0505 O   0  0  0  0  0  0  0  0  0  0  0  0
    3.9483  -11.2789   24.8533 N   0  0  0  0  0  0  0  0  0  0  0  0
    4.5101  -10.3063   24.0683 C   0  0  0  0  0  0  0  0  0  0  0  0
    4.7702   -9.1404   24.6942 N   0  0  0  0  0  0  0  0  0  0  0  0
    5.3731   -8.1740   23.9717 C   0  0  0  0  0  0  0  0  0  0  0  0
    5.8787   -6.9857   24.7259 C   0  0  0  0  0  0  0  0  0  0  0  0
    5.5840   -8.2901   22.6015 C   0  0  0  0  0  0  0  0  0  0  0  0
    5.2847   -9.4906   21.9704 C   0  0  0  0  0  0  0  0  0  0  0  0
    4.7739  -10.5310   22.7217 C   0  0  0  0  0  0  0  0  0  0  0  0
    4.4512  -11.6734   22.1021 F   0  0  0  0  0  0  0  0  0  0  0  0
  1  2  1  0
  2  3  1  0
  3  4  2  0
  4  5  1  0
  5  6  2  0
  6  7  1  0
  6  8  1  0
  8  9  2  0
  9 10  1  0
 10 11  2  0
 10 12  1  0
 12 13  1  0
 13 14  2  0
 14 15  1  0
 15 16  1  0
 15 17  2  0
 17 18  1  0
 18 19  2  0
 19 20  1  0
  9  3  1  0
 19 13  1  0
M  END
>  <inspiration_score>  (154) 
0.691

>  <HIPPO Pose ID>  (154) 
745501

>  <ref_pdb>  (154) 
x0485c

>  <ref_mols>  (154) 
x0485a

>  <HIPPO Compound ID>  (154) 
609427

>  <energy_score>  (154) 
-278.843083

>  <tags>  (154) 
CpKRS_FrAncestor_bulkdock_iter1,CpKRS_FrAncestor_bulkdock_iter1_cluster_best5,fragmenstein_placed,CpKRS_FrAncestor_bulkdock_iter1_exported,BulkDock Fragalysis export

>  <inchikey>  (154) 
IMKUAKHSVPCQMC-UHFFFAOYSA-N

>  <placement_batch>  (154) 
CpKRS_FrAncestor_bulkdock_iter1_cluster_best5

>  <alias>  (154) 
IMKUAKHSVPCQMC-UHFFFAOYSA-N-P30

>  <name>  (154) 
IMKUAKHSVPCQMC-UHFFFAOYSA-N-P30

>  <smiles>  (154) 
COc1ccc(F)cc1C(=O)Nc1nc(C)ccc1F

>  <subsites>  (154) 


>  <distance_score>  (154) 
0.515968

$$$$
NSYVRYFJHSHAHJ-UHFFFAOYSA-N-P10
     RDKit          3D

 20 21  0  0  0  0  0  0  0  0999 V2000
    1.9231  -16.3523   25.5536 C   0  0  0  0  0  0  0  0  0  0  0  0
    2.9014  -15.2501   25.9849 C   0  0  2  0  0  0  0  0  0  0  0  0
    3.6690  -14.7755   24.7194 C   0  0  0  0  0  0  0  0  0  0  0  0
    4.1329  -15.5145   23.9363 O   0  0  0  0  0  0  0  0  0  0  0  0
    3.7098  -13.2126   24.7858 N   0  0  0  0  0  0  0  0  0  0  0  0
    4.2258  -12.2855   23.8893 C   0  0  0  0  0  0  0  0  0  0  0  0
    4.7673  -12.7221   22.6986 C   0  0  0  0  0  0  0  0  0  0  0  0
    5.2538  -11.7761   21.8292 C   0  0  0  0  0  0  0  0  0  0  0  0
    5.2686  -10.4498   22.0604 N   0  0  0  0  0  0  0  0  0  0  0  0
    4.7342  -10.0258   23.2303 C   0  0  0  0  0  0  0  0  0  0  0  0
    4.6927   -8.5312   23.4902 C   0  0  0  0  0  0  0  0  0  0  0  0
    5.6623   -8.0962   24.5725 C   0  0  0  0  0  0  0  0  0  0  0  0
    3.4309   -8.1488   23.8690 F   0  0  0  0  0  0  0  0  0  0  0  0
    4.9696   -7.7708   22.3829 F   0  0  0  0  0  0  0  0  0  0  0  0
    4.1862  -10.9193   24.1601 C   0  0  0  0  0  0  0  0  0  0  0  0
    3.9654  -15.7628   26.9757 C   0  0  0  0  0  0  0  0  0  0  0  0
    3.4370  -15.8696   28.3757 C   0  0  0  0  0  0  0  0  0  0  0  0
    2.3059  -15.2445   28.7263 C   0  0  0  0  0  0  0  0  0  0  0  0
    1.5167  -14.4080   27.7718 C   0  0  0  0  0  0  0  0  0  0  0  0
    2.1972  -14.1293   26.5534 O   0  0  0  0  0  0  0  0  0  0  0  0
  2  1  1  6
  2  3  1  0
  3  4  2  0
  3  5  1  0
  5  6  1  0
  6  7  2  0
  7  8  1  0
  8  9  2  0
  9 10  1  0
 10 11  1  0
 11 12  1  0
 11 13  1  0
 11 14  1  0
 10 15  2  0
  2 16  1  0
 16 17  1  0
 17 18  2  0
 18 19  1  0
 19 20  1  0
 20  2  1  0
 15  6  1  0
M  END
>  <inspiration_score>  (155) 
0.587

>  <HIPPO Pose ID>  (155) 
751891

>  <ref_pdb>  (155) 
x0485c

>  <ref_mols>  (155) 
x0419c

>  <HIPPO Compound ID>  (155) 
611829

>  <energy_score>  (155) 
-56.344897

>  <tags>  (155) 
CpKRS_FrAncestor_bulkdock_iter1,CpKRS_FrAncestor_bulkdock_iter1_cluster_best5,fragmenstein_placed,CpKRS_FrAncestor_bulkdock_iter1_exported,BulkDock Fragalysis export

>  <inchikey>  (155) 
NSYVRYFJHSHAHJ-UHFFFAOYSA-N

>  <placement_batch>  (155) 
CpKRS_FrAncestor_bulkdock_iter1_cluster_best5

>  <alias>  (155) 
NSYVRYFJHSHAHJ-UHFFFAOYSA-N-P10

>  <name>  (155) 
NSYVRYFJHSHAHJ-UHFFFAOYSA-N-P10

>  <smiles>  (155) 
CC1(C(=O)Nc2ccnc(C(C)(F)F)c2)CC=CCO1

>  <subsites>  (155) 


>  <distance_score>  (155) 
0.739067

$$$$
C613789-P30
     RDKit          3D

 20 21  0  0  0  0  0  0  0  0999 V2000
    1.1787  -12.6122   24.5252 C   0  0  0  0  0  0  0  0  0  0  0  0
    1.7084  -12.2711   25.8100 O   0  0  0  0  0  0  0  0  0  0  0  0
    2.3806  -13.3281   26.3674 C   0  0  0  0  0  0  0  0  0  0  0  0
    1.7339  -13.9870   27.4085 C   0  0  0  0  0  0  0  0  0  0  0  0
    2.3827  -15.0088   28.0852 C   0  0  0  0  0  0  0  0  0  0  0  0
    1.7698  -15.5950   29.1222 F   0  0  0  0  0  0  0  0  0  0  0  0
    3.6559  -15.4188   27.7157 C   0  0  0  0  0  0  0  0  0  0  0  0
    4.3094  -14.7625   26.6729 C   0  0  0  0  0  0  0  0  0  0  0  0
    3.6893  -13.6885   26.0144 C   0  0  0  0  0  0  0  0  0  0  0  0
    4.4690  -12.9836   24.9550 C   0  0  0  0  0  0  0  0  0  0  0  0
    5.1620  -13.6123   24.2652 O   0  0  0  0  0  0  0  0  0  0  0  0
    4.1892  -11.4763   24.9746 N   0  0  0  0  0  0  0  0  0  0  0  0
    4.6134  -10.4704   24.1211 C   0  0  0  0  0  0  0  0  0  0  0  0
    4.6655   -9.1766   24.6506 C   0  0  0  0  0  0  0  0  0  0  0  0
    5.1088   -8.1203   23.8645 C   0  0  0  0  0  0  0  0  0  0  0  0
    5.3977   -8.3437   22.5268 C   0  0  0  0  0  0  0  0  0  0  0  0
    5.6907   -7.2983   21.7471 F   0  0  0  0  0  0  0  0  0  0  0  0
    5.3222   -9.6137   21.9776 C   0  0  0  0  0  0  0  0  0  0  0  0
    4.9546  -10.6878   22.7804 C   0  0  0  0  0  0  0  0  0  0  0  0
    4.8592  -11.8863   22.1341 O   0  0  0  0  0  0  0  0  0  0  0  0
  1  2  1  0
  2  3  1  0
  3  4  2  0
  4  5  1  0
  5  6  1  0
  5  7  2  0
  7  8  1  0
  8  9  2  0
  9 10  1  0
 10 11  2  0
 10 12  1  0
 12 13  1  0
 13 14  2  0
 14 15  1  0
 15 16  2  0
 16 17  1  0
 16 18  1  0
 18 19  2  0
 19 20  1  0
  9  3  1  0
 19 13  1  0
M  END
>  <inspiration_score>  (156) 
0.748

>  <HIPPO Pose ID>  (156) 
757816

>  <ref_pdb>  (156) 
x0485a

>  <ref_mols>  (156) 
x0485a

>  <HIPPO Compound ID>  (156) 
613789

>  <energy_score>  (156) 
-283.130052

>  <tags>  (156) 
CpKRS_FrAncestor_bulkdock_iter1,CpKRS_FrAncestor_bulkdock_iter1_cluster_best5,fragmenstein_placed,CpKRS_FrAncestor_bulkdock_iter1_exported,BulkDock Fragalysis export

>  <inchikey>  (156) 
AKZYCENEGQKYRS-UHFFFAOYSA-N

>  <placement_batch>  (156) 
CpKRS_FrAncestor_bulkdock_iter1_cluster_best5

>  <alias>  (156) 
C613789-P30

>  <name>  (156) 
C613789-P30

>  <smiles>  (156) 
COc1cc(F)ccc1C(=O)Nc1ccc(F)cc1O

>  <subsites>  (156) 


>  <distance_score>  (156) 
0.34767

$$$$
C615696-P9
     RDKit          3D

 20 21  0  0  0  0  0  0  0  0999 V2000
    5.9534   -7.5852   24.3752 C   0  0  0  0  0  0  0  0  0  0  0  0
    5.2279   -7.7932   23.1608 O   0  0  0  0  0  0  0  0  0  0  0  0
    4.9046   -9.1149   22.9851 C   0  0  0  0  0  0  0  0  0  0  0  0
    5.4038   -9.7000   21.8332 C   0  0  0  0  0  0  0  0  0  0  0  0
    5.0672  -11.0098   21.5503 C   0  0  0  0  0  0  0  0  0  0  0  0
    4.2972  -11.7546   22.4327 C   0  0  0  0  0  0  0  0  0  0  0  0
    3.8330  -11.2174   23.6415 C   0  0  0  0  0  0  0  0  0  0  0  0
    3.0202  -12.0634   24.6242 C   0  0  0  0  0  0  0  0  0  0  0  0
    3.4156  -13.5592   24.6969 C   0  0  0  0  0  0  0  0  0  0  0  0
    3.9298  -14.0715   23.7749 O   0  0  0  0  0  0  0  0  0  0  0  0
    3.1188  -14.1031   26.0824 N   0  0  0  0  0  0  0  0  0  0  0  0
    1.6914  -14.7800   26.1383 C   0  0  2  0  0  0  0  0  0  0  0  0
    0.6453  -13.9536   25.3446 C   0  0  0  0  0  0  0  0  0  0  0  0
    1.1163  -14.8052   27.5835 C   0  0  0  0  0  0  0  0  0  0  0  0
    1.7267  -15.8215   28.3610 O   0  0  0  0  0  0  0  0  0  0  0  0
    3.1307  -15.6688   28.2137 C   0  0  0  0  0  0  0  0  0  0  0  0
    3.4941  -15.4531   26.7338 C   0  0  2  0  0  0  0  0  0  0  0  0
    5.0373  -15.4859   26.6515 C   0  0  0  0  0  0  0  0  0  0  0  0
    4.0561   -9.8439   23.8393 C   0  0  0  0  0  0  0  0  0  0  0  0
    3.1148   -8.9688   24.9856 Cl  0  0  0  0  0  0  0  0  0  0  0  0
  1  2  1  0
  2  3  1  0
  3  4  2  0
  4  5  1  0
  5  6  2  0
  6  7  1  0
  7  8  1  0
  8  9  1  0
  9 10  2  0
  9 11  1  0
 11 12  1  0
 12 13  1  6
 12 14  1  0
 14 15  1  0
 15 16  1  0
 16 17  1  0
 17 18  1  1
  7 19  2  0
 19 20  1  0
 19  3  1  0
 17 11  1  0
M  END
>  <inspiration_score>  (157) 
0.6

>  <HIPPO Pose ID>  (157) 
763299

>  <ref_pdb>  (157) 
x0485a

>  <ref_mols>  (157) 
x0419a

>  <HIPPO Compound ID>  (157) 
615696

>  <energy_score>  (157) 
-116.131083

>  <tags>  (157) 
CpKRS_FrAncestor_bulkdock_iter1,CpKRS_FrAncestor_bulkdock_iter1_cluster_best5,fragmenstein_placed,CpKRS_FrAncestor_bulkdock_iter1_exported,BulkDock Fragalysis export

>  <inchikey>  (157) 
MUQFNGREVCISDV-UHFFFAOYSA-N

>  <placement_batch>  (157) 
CpKRS_FrAncestor_bulkdock_iter1_cluster_best5

>  <alias>  (157) 
C615696-P9

>  <name>  (157) 
C615696-P9

>  <smiles>  (157) 
COc1cccc(CC(=O)N2[C@H](C)COC[C@@H]2C)c1Cl

>  <subsites>  (157) 


>  <distance_score>  (157) 
0.860825

$$$$
VSRLGBYJWXHDNI-NSHDSACASA-N-P14
     RDKit          3D

 20 21  0  0  0  0  0  0  0  0999 V2000
    3.9631   -8.1842   24.9218 C   0  0  0  0  0  0  0  0  0  0  0  0
    5.4252   -8.1104   24.4798 C   0  0  0  0  0  0  0  0  0  0  0  0
    5.8893   -6.7007   24.1753 C   0  0  0  0  0  0  0  0  0  0  0  0
    5.7772   -9.0135   23.3774 N   0  0  0  0  0  0  0  0  0  0  0  0
    5.0465   -8.9587   22.1207 C   0  0  0  0  0  0  0  0  0  0  0  0
    4.2943  -10.2764   21.9699 C   0  0  0  0  0  0  0  0  0  0  0  0
    5.0177  -11.2776   22.8439 C   0  0  2  0  0  0  0  0  0  0  0  0
    4.1351  -12.0875   23.6350 N   0  0  0  0  0  0  0  0  0  0  0  0
    4.4418  -13.1216   24.7308 C   0  0  0  0  0  0  0  0  0  0  0  0
    5.4599  -13.5374   25.1120 O   0  0  0  0  0  0  0  0  0  0  0  0
    3.1962  -13.5197   25.4087 C   0  0  0  0  0  0  0  0  0  0  0  0
    3.0960  -14.3146   26.5968 C   0  0  0  0  0  0  0  0  0  0  0  0
    1.7789  -14.3253   27.0068 C   0  0  0  0  0  0  0  0  0  0  0  0
    1.0685  -13.5845   26.1032 N   0  0  0  0  0  0  0  0  0  0  0  0
   -0.3609  -13.3430   26.0733 C   0  0  0  0  0  0  0  0  0  0  0  0
   -0.6458  -12.0554   25.7555 F   0  0  0  0  0  0  0  0  0  0  0  0
   -0.9814  -14.1416   25.1643 F   0  0  0  0  0  0  0  0  0  0  0  0
   -0.9562  -13.5886   27.2631 F   0  0  0  0  0  0  0  0  0  0  0  0
    1.9095  -13.0871   25.1425 C   0  0  0  0  0  0  0  0  0  0  0  0
    5.7005  -10.3787   23.8601 C   0  0  0  0  0  0  0  0  0  0  0  0
  1  2  1  0
  2  3  1  0
  2  4  1  0
  4  5  1  0
  5  6  1  0
  6  7  1  0
  7  8  1  1
  8  9  1  0
  9 10  2  0
  9 11  1  0
 11 12  1  0
 12 13  2  0
 13 14  1  0
 14 15  1  0
 15 16  1  0
 15 17  1  0
 15 18  1  0
 14 19  1  0
  7 20  1  0
 20  4  1  0
 19 11  2  0
M  END
>  <inspiration_score>  (158) 
0.629

>  <HIPPO Pose ID>  (158) 
770299

>  <ref_pdb>  (158) 
x0419a

>  <ref_mols>  (158) 
x0421d

>  <HIPPO Compound ID>  (158) 
619637

>  <energy_score>  (158) 
-410.166221

>  <tags>  (158) 
CpKRS_FrAncestor_bulkdock_iter1,CpKRS_FrAncestor_bulkdock_iter1_cluster_best5,fragmenstein_placed,CpKRS_FrAncestor_bulkdock_iter1_exported,BulkDock Fragalysis export

>  <inchikey>  (158) 
VSRLGBYJWXHDNI-UHFFFAOYSA-N

>  <placement_batch>  (158) 
CpKRS_FrAncestor_bulkdock_iter1_cluster_best5

>  <alias>  (158) 
VSRLGBYJWXHDNI-NSHDSACASA-N-P14

>  <name>  (158) 
VSRLGBYJWXHDNI-NSHDSACASA-N-P14

>  <smiles>  (158) 
CC(C)N1CC[C@H](NC(=O)c2ccn(C(F)(F)F)c2)C1

>  <subsites>  (158) 


>  <distance_score>  (158) 
0.73207

$$$$
WPFWZOQVEOLCRC-UHFFFAOYSA-N-P56
     RDKit          3D

 20 21  0  0  0  0  0  0  0  0999 V2000
    4.4763   -8.1855   25.7412 C   0  0  0  0  0  0  0  0  0  0  0  0
    4.6073   -9.0018   24.4919 C   0  0  0  0  0  0  0  0  0  0  0  0
    3.8860  -10.1512   24.3983 N   0  0  0  0  0  0  0  0  0  0  0  0
    4.0499  -10.9323   23.2928 C   0  0  0  0  0  0  0  0  0  0  0  0
    3.2259  -12.2010   23.1710 C   0  0  0  0  0  0  0  0  0  0  0  0
    3.1318  -12.9180   24.4062 N   0  0  0  0  0  0  0  0  0  0  0  0
    4.0874  -13.9574   25.0400 C   0  0  0  0  0  0  0  0  0  0  0  0
    5.1357  -14.3324   24.6906 O   0  0  0  0  0  0  0  0  0  0  0  0
    3.3901  -14.3632   26.3771 C   0  0  1  0  0  0  0  0  0  0  0  0
    1.9582  -14.3826   26.2577 O   0  0  0  0  0  0  0  0  0  0  0  0
    1.3203  -14.4231   27.5323 C   0  0  0  0  0  0  0  0  0  0  0  0
    1.7189  -15.6606   28.3181 C   0  0  0  0  0  0  0  0  0  0  0  0
    3.2312  -15.7722   28.4370 C   0  0  0  0  0  0  0  0  0  0  0  0
    3.9178  -15.6510   27.0567 C   0  0  0  0  0  0  0  0  0  0  0  0
    5.4397  -15.5936   27.2428 C   0  0  0  0  0  0  0  0  0  0  0  0
    3.5534  -16.9092   26.2649 C   0  0  0  0  0  0  0  0  0  0  0  0
    4.8926  -10.5559   22.2489 C   0  0  0  0  0  0  0  0  0  0  0  0
    5.6042   -9.3635   22.3496 C   0  0  0  0  0  0  0  0  0  0  0  0
    5.4738   -8.5909   23.4920 C   0  0  0  0  0  0  0  0  0  0  0  0
    6.1641   -7.4492   23.6128 F   0  0  0  0  0  0  0  0  0  0  0  0
  1  2  1  0
  2  3  2  0
  3  4  1  0
  4  5  1  0
  5  6  1  0
  6  7  1  0
  7  8  2  0
  9  7  1  6
  9 10  1  0
 10 11  1  0
 11 12  1  0
 12 13  1  0
 13 14  1  0
 14 15  1  0
 14 16  1  0
  4 17  2  0
 17 18  1  0
 18 19  2  0
 19 20  1  0
 19  2  1  0
 14  9  1  0
M  END
>  <inspiration_score>  (159) 
0.706

>  <HIPPO Pose ID>  (159) 
774421

>  <ref_pdb>  (159) 
x0421b

>  <ref_mols>  (159) 
x0654a

>  <HIPPO Compound ID>  (159) 
621155

>  <energy_score>  (159) 
-42.42205

>  <tags>  (159) 
CpKRS_FrAncestor_bulkdock_iter1,CpKRS_FrAncestor_bulkdock_iter1_cluster_best5,fragmenstein_placed,CpKRS_FrAncestor_bulkdock_iter1_exported,BulkDock Fragalysis export

>  <inchikey>  (159) 
WPFWZOQVEOLCRC-UHFFFAOYSA-N

>  <placement_batch>  (159) 
CpKRS_FrAncestor_bulkdock_iter1_cluster_best5

>  <alias>  (159) 
WPFWZOQVEOLCRC-UHFFFAOYSA-N-P56

>  <name>  (159) 
WPFWZOQVEOLCRC-UHFFFAOYSA-N-P56

>  <smiles>  (159) 
Cc1nc(CNC(=O)C2OCCCC2(C)C)ccc1F

>  <subsites>  (159) 


>  <distance_score>  (159) 
0.485606

$$$$
XXPWXIFNYYCGSE-UHFFFAOYSA-N-P43
     RDKit          3D

 20 21  0  0  0  0  0  0  0  0999 V2000
    3.9999    2.0198   46.7545 C   0  0  0  0  0  0  0  0  0  0  0  0
    2.7704    2.8668   46.9514 C   0  0  0  0  0  0  0  0  0  0  0  0
    2.7944    4.1885   46.2730 C   0  0  0  0  0  0  0  0  0  0  0  0
    2.2749    5.2629   46.9888 C   0  0  0  0  0  0  0  0  0  0  0  0
    2.2388    6.5230   46.4351 C   0  0  0  0  0  0  0  0  0  0  0  0
    2.5888    6.6760   45.1137 C   0  0  0  0  0  0  0  0  0  0  0  0
    2.3279    7.8283   44.4909 F   0  0  0  0  0  0  0  0  0  0  0  0
    3.1099    5.6276   44.3856 C   0  0  0  0  0  0  0  0  0  0  0  0
    3.5299    5.8809   43.1008 N   0  0  0  0  0  0  0  0  0  0  0  0
    4.2750    4.9805   42.0949 C   0  0  0  0  0  0  0  0  0  0  0  0
    4.5814    3.8597   42.1687 O   0  0  0  0  0  0  0  0  0  0  0  0
    4.5514    5.9120   40.8945 C   0  0  1  0  0  0  0  0  0  0  0  0
    4.8325    7.2559   41.3433 O   0  0  0  0  0  0  0  0  0  0  0  0
    4.9463    8.1212   40.2023 C   0  0  0  0  0  0  0  0  0  0  0  0
    6.0125    7.6404   39.2205 C   0  0  0  0  0  0  0  0  0  0  0  0
    5.8237    6.2710   38.8584 O   0  0  0  0  0  0  0  0  0  0  0  0
    5.6809    5.3937   39.9962 C   0  0  0  0  0  0  0  0  0  0  0  0
    5.3632    4.0318   39.4423 C   0  0  0  0  0  0  0  0  0  0  0  0
    7.0078    5.2276   40.7196 C   0  0  0  0  0  0  0  0  0  0  0  0
    3.2222    4.3723   44.9608 C   0  0  0  0  0  0  0  0  0  0  0  0
  1  2  1  0
  2  3  1  0
  3  4  2  0
  4  5  1  0
  5  6  2  0
  6  7  1  0
  6  8  1  0
  8  9  1  0
  9 10  1  0
 10 11  2  0
 12 10  1  1
 12 13  1  0
 13 14  1  0
 14 15  1  0
 15 16  1  0
 16 17  1  0
 17 18  1  0
 17 19  1  0
  8 20  2  0
 20  3  1  0
 17 12  1  0
M  END
>  <inspiration_score>  (160) 
0.658

>  <HIPPO Pose ID>  (160) 
774950

>  <ref_pdb>  (160) 
x0421b

>  <ref_mols>  (160) 
x0606c

>  <HIPPO Compound ID>  (160) 
621331

>  <energy_score>  (160) 
-50.602017

>  <tags>  (160) 
CpKRS_FrAncestor_bulkdock_iter1,CpKRS_FrAncestor_bulkdock_iter1_cluster_best5,fragmenstein_placed,CpKRS_FrAncestor_bulkdock_iter1_exported,BulkDock Fragalysis export

>  <inchikey>  (160) 
XXPWXIFNYYCGSE-UHFFFAOYSA-N

>  <placement_batch>  (160) 
CpKRS_FrAncestor_bulkdock_iter1_cluster_best5

>  <alias>  (160) 
XXPWXIFNYYCGSE-UHFFFAOYSA-N-P43

>  <name>  (160) 
XXPWXIFNYYCGSE-UHFFFAOYSA-N-P43

>  <smiles>  (160) 
CCc1ccc(F)c(NC(=O)C2OCCOC2(C)C)c1

>  <subsites>  (160) 


>  <distance_score>  (160) 
0.754197

$$$$
C628102-P17
     RDKit          3D

 20 21  0  0  0  0  0  0  0  0999 V2000
    0.4956  -15.1379   30.3958 C   0  0  0  0  0  0  0  0  0  0  0  0
    1.1065  -15.0707   29.3655 C   0  0  0  0  0  0  0  0  0  0  0  0
    1.8859  -14.9395   28.1780 C   0  0  0  0  0  0  0  0  0  0  0  0
    1.4150  -14.1707   27.1146 C   0  0  0  0  0  0  0  0  0  0  0  0
    2.2611  -13.8745   26.0465 C   0  0  0  0  0  0  0  0  0  0  0  0
    3.5626  -14.3998   26.0150 C   0  0  0  0  0  0  0  0  0  0  0  0
    4.6077  -13.9275   25.0603 C   0  0  0  0  0  0  0  0  0  0  0  0
    5.7079  -13.9667   25.4414 O   0  0  0  0  0  0  0  0  0  0  0  0
    4.0265  -13.3692   23.7540 N   0  0  0  0  0  0  0  0  0  0  0  0
    4.6595  -12.6564   22.6815 C   0  0  0  0  0  0  0  0  0  0  0  0
    4.9323  -11.2163   23.0534 C   0  0  0  0  0  0  0  0  0  0  0  0
    5.4704  -10.8709   24.2864 C   0  0  0  0  0  0  0  0  0  0  0  0
    5.7688   -9.5520   24.6140 C   0  0  0  0  0  0  0  0  0  0  0  0
    5.5178   -8.5792   23.6887 C   0  0  0  0  0  0  0  0  0  0  0  0
    4.9799   -8.9985   22.4882 C   0  0  0  0  0  0  0  0  0  0  0  0
    4.5698   -7.9956   21.5110 C   0  0  0  0  0  0  0  0  0  0  0  0
    4.6707  -10.2705   22.1463 N   0  0  0  0  0  0  0  0  0  0  0  0
    3.9956  -15.2411   27.0447 C   0  0  0  0  0  0  0  0  0  0  0  0
    3.1628  -15.4920   28.1194 C   0  0  0  0  0  0  0  0  0  0  0  0
    3.6325  -16.2252   29.1399 F   0  0  0  0  0  0  0  0  0  0  0  0
  1  2  3  0
  2  3  1  0
  3  4  2  0
  4  5  1  0
  5  6  2  0
  6  7  1  0
  7  8  2  0
  7  9  1  0
  9 10  1  0
 10 11  1  0
 11 12  2  0
 12 13  1  0
 13 14  2  0
 14 15  1  0
 15 16  1  0
 15 17  2  0
  6 18  1  0
 18 19  2  0
 19 20  1  0
 19  3  1  0
 17 11  1  0
M  END
>  <inspiration_score>  (161) 
0.811

>  <HIPPO Pose ID>  (161) 
777708

>  <ref_pdb>  (161) 
x0419c

>  <ref_mols>  (161) 
x0434a

>  <HIPPO Compound ID>  (161) 
628102

>  <energy_score>  (161) 
-178.709716

>  <tags>  (161) 
CpKRS_FrAncestor_bulkdock_iter1,CpKRS_FrAncestor_bulkdock_iter1_cluster_best5,fragmenstein_placed,CpKRS_FrAncestor_bulkdock_iter1_exported,BulkDock Fragalysis export

>  <inchikey>  (161) 
GDDHEJJYVIVDRD-UHFFFAOYSA-N

>  <placement_batch>  (161) 
CpKRS_FrAncestor_bulkdock_iter1_cluster_best5

>  <alias>  (161) 
C628102-P17

>  <name>  (161) 
C628102-P17

>  <smiles>  (161) 
C#Cc1ccc(C(=O)NCc2cccc(C)n2)cc1F

>  <subsites>  (161) 


>  <distance_score>  (161) 
0.705513

$$$$
C629104-P8
     RDKit          3D

 20 21  0  0  0  0  0  0  0  0999 V2000
    3.4137    7.5374   38.8920 C   0  0  0  0  0  0  0  0  0  0  0  0
    4.6330    7.5491   39.8203 C   0  0  2  0  0  0  0  0  0  0  0  0
    5.9047    7.3037   39.0022 C   0  0  0  0  0  0  0  0  0  0  0  0
    5.9330    5.9765   38.4886 O   0  0  0  0  0  0  0  0  0  0  0  0
    5.9186    4.9696   39.4916 C   0  0  0  0  0  0  0  0  0  0  0  0
    4.6985    5.0779   40.3864 C   0  0  0  0  0  0  0  0  0  0  0  0
    4.5922    6.4922   40.9433 C   0  0  2  0  0  0  0  0  0  0  0  0
    3.4965    6.7478   41.9966 C   0  0  0  0  0  0  0  0  0  0  0  0
    2.7588    7.6514   41.9265 O   0  0  0  0  0  0  0  0  0  0  0  0
    3.6776    5.6772   43.1146 N   0  0  0  0  0  0  0  0  0  0  0  0
    3.0815    5.5664   44.3515 C   0  0  0  0  0  0  0  0  0  0  0  0
    2.2561    6.5554   44.8476 C   0  0  0  0  0  0  0  0  0  0  0  0
    1.7543    6.4264   46.1450 C   0  0  0  0  0  0  0  0  0  0  0  0
    0.8290    7.4753   46.6969 C   0  0  0  0  0  0  0  0  0  0  0  0
    1.0712    8.7227   46.2388 F   0  0  0  0  0  0  0  0  0  0  0  0
    0.9017    7.5691   48.0594 F   0  0  0  0  0  0  0  0  0  0  0  0
   -0.4773    7.2165   46.4188 F   0  0  0  0  0  0  0  0  0  0  0  0
    2.1067    5.2961   46.8877 C   0  0  0  0  0  0  0  0  0  0  0  0
    2.9269    4.3498   46.3057 C   0  0  0  0  0  0  0  0  0  0  0  0
    3.4266    4.4670   45.0589 N   0  0  0  0  0  0  0  0  0  0  0  0
  2  1  1  6
  2  3  1  0
  3  4  1  0
  4  5  1  0
  5  6  1  0
  6  7  1  0
  7  8  1  6
  8  9  2  0
  8 10  1  0
 10 11  1  0
 11 12  2  0
 12 13  1  0
 13 14  1  0
 14 15  1  0
 14 16  1  0
 14 17  1  0
 13 18  2  0
 18 19  1  0
 19 20  2  0
  7  2  1  0
 20 11  1  0
M  END
>  <inspiration_score>  (162) 
0.676

>  <HIPPO Pose ID>  (162) 
780659

>  <ref_pdb>  (162) 
x0419c

>  <ref_mols>  (162) 
x0419b

>  <HIPPO Compound ID>  (162) 
629104

>  <energy_score>  (162) 
-56.88946

>  <tags>  (162) 
CpKRS_FrAncestor_bulkdock_iter1,CpKRS_FrAncestor_bulkdock_iter1_cluster_best5,fragmenstein_placed,CpKRS_FrAncestor_bulkdock_iter1_exported,BulkDock Fragalysis export

>  <inchikey>  (162) 
URMYBTYDDHWOFF-UHFFFAOYSA-N

>  <placement_batch>  (162) 
CpKRS_FrAncestor_bulkdock_iter1_cluster_best5

>  <alias>  (162) 
C629104-P8

>  <name>  (162) 
C629104-P8

>  <smiles>  (162) 
C[C@@H]1COCC[C@@H]1C(=O)Nc1cc(C(F)(F)F)ccn1

>  <subsites>  (162) 


>  <distance_score>  (162) 
0.691398

$$$$
C629225-P17
     RDKit          3D

 20 21  0  0  0  0  0  0  0  0999 V2000
    4.4631  -16.5137   29.5624 C   0  0  0  0  0  0  0  0  0  0  0  0
    3.7868  -15.9860   28.7292 C   0  0  0  0  0  0  0  0  0  0  0  0
    3.0790  -15.2710   27.7354 C   0  0  0  0  0  0  0  0  0  0  0  0
    1.7128  -15.0282   27.8522 C   0  0  0  0  0  0  0  0  0  0  0  0
    1.0769  -14.2601   26.8852 C   0  0  0  0  0  0  0  0  0  0  0  0
    1.8186  -13.7165   25.8423 C   0  0  0  0  0  0  0  0  0  0  0  0
    1.1601  -12.9318   24.9744 F   0  0  0  0  0  0  0  0  0  0  0  0
    3.1934  -13.9419   25.7329 C   0  0  0  0  0  0  0  0  0  0  0  0
    4.0859  -13.2774   24.7414 C   0  0  0  0  0  0  0  0  0  0  0  0
    5.2333  -13.3728   24.8945 O   0  0  0  0  0  0  0  0  0  0  0  0
    3.2887  -12.4935   23.7050 N   0  0  0  0  0  0  0  0  0  0  0  0
    3.7182  -11.5948   22.7046 C   0  0  0  0  0  0  0  0  0  0  0  0
    4.0658  -10.2252   23.2284 C   0  0  0  0  0  0  0  0  0  0  0  0
    3.7082   -9.7703   24.4962 C   0  0  0  0  0  0  0  0  0  0  0  0
    4.0756   -8.4890   24.8891 C   0  0  0  0  0  0  0  0  0  0  0  0
    4.7403   -7.6196   24.1035 N   0  0  0  0  0  0  0  0  0  0  0  0
    5.0712   -8.0648   22.8875 C   0  0  0  0  0  0  0  0  0  0  0  0
    4.7586   -9.3326   22.4151 C   0  0  0  0  0  0  0  0  0  0  0  0
    5.1560   -9.6635   21.0365 C   0  0  0  0  0  0  0  0  0  0  0  0
    3.8144  -14.7492   26.6807 C   0  0  0  0  0  0  0  0  0  0  0  0
  1  2  3  0
  2  3  1  0
  3  4  2  0
  4  5  1  0
  5  6  2  0
  6  7  1  0
  6  8  1  0
  8  9  1  0
  9 10  2  0
  9 11  1  0
 11 12  1  0
 12 13  1  0
 13 14  2  0
 14 15  1  0
 15 16  2  0
 16 17  1  0
 17 18  2  0
 18 19  1  0
  8 20  2  0
 20  3  1  0
 18 13  1  0
M  END
>  <inspiration_score>  (163) 
0.696

>  <HIPPO Pose ID>  (163) 
780967

>  <ref_pdb>  (163) 
x0419c

>  <ref_mols>  (163) 
x0434a

>  <HIPPO Compound ID>  (163) 
629225

>  <energy_score>  (163) 
-74.561379

>  <tags>  (163) 
CpKRS_FrAncestor_bulkdock_iter1,CpKRS_FrAncestor_bulkdock_iter1_cluster_best5,fragmenstein_placed,CpKRS_FrAncestor_bulkdock_iter1_exported,BulkDock Fragalysis export

>  <inchikey>  (163) 
MDCQHFBXRFXXDS-UHFFFAOYSA-N

>  <placement_batch>  (163) 
CpKRS_FrAncestor_bulkdock_iter1_cluster_best5

>  <alias>  (163) 
C629225-P17

>  <name>  (163) 
C629225-P17

>  <smiles>  (163) 
C#Cc1ccc(F)c(C(=O)NCc2ccncc2C)c1

>  <subsites>  (163) 


>  <distance_score>  (163) 
0.814507

$$$$
C629857-P57
     RDKit          3D

 20 21  0  0  0  0  0  0  0  0999 V2000
    6.3756   -9.1682   24.5733 C   0  0  0  0  0  0  0  0  0  0  0  0
    5.5460   -9.2889   23.3781 N   0  0  0  0  0  0  0  0  0  0  0  0
    4.3206   -8.5285   23.6241 C   0  0  0  0  0  0  0  0  0  0  0  0
    3.3894   -9.1645   24.6905 C   0  0  0  0  0  0  0  0  0  0  0  0
    3.4753  -10.6022   24.7339 O   0  0  0  0  0  0  0  0  0  0  0  0
    3.7546  -11.1092   23.4317 C   0  0  2  0  0  0  0  0  0  0  0  0
    3.6000  -12.6344   23.3021 C   0  0  0  0  0  0  0  0  0  0  0  0
    3.0824  -13.1204   22.3757 O   0  0  0  0  0  0  0  0  0  0  0  0
    4.3184  -13.2890   24.5092 N   0  0  0  0  0  0  0  0  0  0  0  0
    4.4661  -14.6965   24.8769 C   0  0  0  0  0  0  0  0  0  0  0  0
    4.0376  -15.6436   23.7383 C   0  0  0  0  0  0  0  0  0  0  0  0
    5.9662  -14.9416   25.1315 C   0  0  0  0  0  0  0  0  0  0  0  0
    3.5855  -14.9613   26.1002 C   0  0  0  0  0  0  0  0  0  0  0  0
    2.2281  -14.5881   26.0563 C   0  0  0  0  0  0  0  0  0  0  0  0
    1.3897  -14.7905   27.1469 C   0  0  0  0  0  0  0  0  0  0  0  0
    1.8946  -15.3805   28.2968 C   0  0  0  0  0  0  0  0  0  0  0  0
    0.8605  -15.6140   29.6388 Cl  0  0  0  0  0  0  0  0  0  0  0  0
    3.2257  -15.7694   28.3688 C   0  0  0  0  0  0  0  0  0  0  0  0
    4.0655  -15.5598   27.2754 C   0  0  0  0  0  0  0  0  0  0  0  0
    5.1865  -10.6891   23.0405 C   0  0  0  0  0  0  0  0  0  0  0  0
  1  2  1  0
  2  3  1  0
  3  4  1  0
  4  5  1  0
  5  6  1  0
  6  7  1  1
  7  8  2  0
  7  9  1  0
  9 10  1  0
 10 11  1  0
 10 12  1  0
 10 13  1  0
 13 14  2  0
 14 15  1  0
 15 16  2  0
 16 17  1  0
 16 18  1  0
 18 19  2  0
  6 20  1  0
 20  2  1  0
 19 13  1  0
M  END
>  <inspiration_score>  (164) 
0.745

>  <HIPPO Pose ID>  (164) 
782747

>  <ref_pdb>  (164) 
x0419c

>  <ref_mols>  (164) 
x0654b

>  <HIPPO Compound ID>  (164) 
629857

>  <energy_score>  (164) 
-38.341374

>  <tags>  (164) 
CpKRS_FrAncestor_bulkdock_iter1,CpKRS_FrAncestor_bulkdock_iter1_cluster_best5,fragmenstein_placed,CpKRS_FrAncestor_bulkdock_iter1_exported,BulkDock Fragalysis export

>  <inchikey>  (164) 
QIUBLMOLRQQISA-UHFFFAOYSA-N

>  <placement_batch>  (164) 
CpKRS_FrAncestor_bulkdock_iter1_cluster_best5

>  <alias>  (164) 
C629857-P57

>  <name>  (164) 
C629857-P57

>  <smiles>  (164) 
CN1CCO[C@H](C(=O)NC(C)(C)c2ccc(Cl)cc2)C1

>  <subsites>  (164) 


>  <distance_score>  (164) 
0.645405

$$$$
C630233-P57
     RDKit          3D

 20 21  0  0  0  0  0  0  0  0999 V2000
    6.3805   -9.1422   24.5931 C   0  0  0  0  0  0  0  0  0  0  0  0
    5.5354   -9.2634   23.4100 N   0  0  0  0  0  0  0  0  0  0  0  0
    4.3116   -8.5070   23.6684 C   0  0  0  0  0  0  0  0  0  0  0  0
    3.3883   -9.1468   24.7386 C   0  0  0  0  0  0  0  0  0  0  0  0
    3.4632  -10.5855   24.7705 O   0  0  0  0  0  0  0  0  0  0  0  0
    3.7392  -11.0839   23.4675 C   0  0  2  0  0  0  0  0  0  0  0  0
    3.6348  -12.6078   23.3019 C   0  0  0  0  0  0  0  0  0  0  0  0
    3.2589  -13.0866   22.3066 O   0  0  0  0  0  0  0  0  0  0  0  0
    4.1922  -13.2699   24.5860 N   0  0  0  0  0  0  0  0  0  0  0  0
    4.3148  -14.6784   24.9498 C   0  0  0  0  0  0  0  0  0  0  0  0
    3.7864  -15.6148   23.8431 C   0  0  0  0  0  0  0  0  0  0  0  0
    5.8235  -14.9613   25.0997 C   0  0  0  0  0  0  0  0  0  0  0  0
    3.5090  -14.9359   26.2255 C   0  0  0  0  0  0  0  0  0  0  0  0
    2.1600  -14.5331   26.2819 C   0  0  0  0  0  0  0  0  0  0  0  0
    1.3704  -14.8176   27.3938 C   0  0  0  0  0  0  0  0  0  0  0  0
    1.9168  -15.5127   28.4609 C   0  0  0  0  0  0  0  0  0  0  0  0
    1.1402  -15.8408   29.5024 F   0  0  0  0  0  0  0  0  0  0  0  0
    3.2501  -15.8914   28.4519 C   0  0  0  0  0  0  0  0  0  0  0  0
    4.0409  -15.6051   27.3394 C   0  0  0  0  0  0  0  0  0  0  0  0
    5.1744  -10.6620   23.0770 C   0  0  0  0  0  0  0  0  0  0  0  0
  1  2  1  0
  2  3  1  0
  3  4  1  0
  4  5  1  0
  5  6  1  0
  6  7  1  1
  7  8  2  0
  7  9  1  0
  9 10  1  0
 10 11  1  0
 10 12  1  0
 10 13  1  0
 13 14  2  0
 14 15  1  0
 15 16  2  0
 16 17  1  0
 16 18  1  0
 18 19  2  0
  6 20  1  0
 20  2  1  0
 19 13  1  0
M  END
>  <inspiration_score>  (165) 
0.745

>  <HIPPO Pose ID>  (165) 
783850

>  <ref_pdb>  (165) 
x0419c

>  <ref_mols>  (165) 
x0654b

>  <HIPPO Compound ID>  (165) 
630233

>  <energy_score>  (165) 
-39.566116

>  <tags>  (165) 
CpKRS_FrAncestor_bulkdock_iter1,CpKRS_FrAncestor_bulkdock_iter1_cluster_best5,fragmenstein_placed,CpKRS_FrAncestor_bulkdock_iter1_exported,BulkDock Fragalysis export

>  <inchikey>  (165) 
NHNJTDFXMPDMBT-UHFFFAOYSA-N

>  <placement_batch>  (165) 
CpKRS_FrAncestor_bulkdock_iter1_cluster_best5

>  <alias>  (165) 
C630233-P57

>  <name>  (165) 
C630233-P57

>  <smiles>  (165) 
CN1CCO[C@H](C(=O)NC(C)(C)c2ccc(F)cc2)C1

>  <subsites>  (165) 


>  <distance_score>  (165) 
0.620512

$$$$
BKBUGLUAVDMRSE-UHFFFAOYSA-N-P8
     RDKit          3D

 20 21  0  0  0  0  0  0  0  0999 V2000
    2.4909    7.7634   42.9774 C   0  0  0  0  0  0  0  0  0  0  0  0
    1.9051    7.7073   44.2699 O   0  0  0  0  0  0  0  0  0  0  0  0
    2.1634    6.6340   45.0728 C   0  0  0  0  0  0  0  0  0  0  0  0
    3.0201    5.5712   44.7412 C   0  0  0  0  0  0  0  0  0  0  0  0
    3.6348    5.4977   43.5502 F   0  0  0  0  0  0  0  0  0  0  0  0
    3.2787    4.5337   45.6351 C   0  0  0  0  0  0  0  0  0  0  0  0
    2.7194    4.5671   46.9010 C   0  0  0  0  0  0  0  0  0  0  0  0
    1.8773    5.6236   47.2510 C   0  0  0  0  0  0  0  0  0  0  0  0
    1.5388    6.6306   46.3381 C   0  0  0  0  0  0  0  0  0  0  0  0
    0.3377    7.5053   46.6467 C   0  0  0  0  0  0  0  0  0  0  0  0
   -0.4959    7.5306   45.8358 O   0  0  0  0  0  0  0  0  0  0  0  0
    0.3940    8.1593   48.0416 N   0  0  0  0  0  0  0  0  0  0  0  0
   -0.5425    9.0768   48.7028 C   0  0  1  0  0  0  0  0  0  0  0  0
   -2.0291    8.7458   48.5404 C   0  0  0  0  0  0  0  0  0  0  0  0
   -2.8265    9.8394   49.0361 O   0  0  0  0  0  0  0  0  0  0  0  0
   -2.6797    9.9968   50.4472 C   0  0  0  0  0  0  0  0  0  0  0  0
   -1.2541   10.3952   50.7716 C   0  0  0  0  0  0  0  0  0  0  0  0
   -0.2968    9.3802   50.1815 C   0  0  0  0  0  0  0  0  0  0  0  0
    0.9776    9.8423   50.3332 F   0  0  0  0  0  0  0  0  0  0  0  0
   -0.4016    8.2484   50.9204 F   0  0  0  0  0  0  0  0  0  0  0  0
  1  2  1  0
  2  3  1  0
  3  4  2  0
  4  5  1  0
  4  6  1  0
  6  7  2  0
  7  8  1  0
  8  9  2  0
  9 10  1  0
 10 11  2  0
 10 12  1  0
 13 12  1  1
 13 14  1  0
 14 15  1  0
 15 16  1  0
 16 17  1  0
 17 18  1  0
 18 19  1  0
 18 20  1  0
  9  3  1  0
 18 13  1  0
M  END
>  <inspiration_score>  (166) 
0.335

>  <HIPPO Pose ID>  (166) 
786316

>  <ref_pdb>  (166) 
x0485c

>  <ref_mols>  (166) 
x0419b

>  <HIPPO Compound ID>  (166) 
631119

>  <energy_score>  (166) 
-208.791562

>  <tags>  (166) 
CpKRS_FrAncestor_bulkdock_iter1,CpKRS_FrAncestor_bulkdock_iter1_cluster_best5,fragmenstein_placed,CpKRS_FrAncestor_bulkdock_iter1_exported,BulkDock Fragalysis export

>  <inchikey>  (166) 
BKBUGLUAVDMRSE-UHFFFAOYSA-N

>  <placement_batch>  (166) 
CpKRS_FrAncestor_bulkdock_iter1_cluster_best5

>  <alias>  (166) 
BKBUGLUAVDMRSE-UHFFFAOYSA-N-P8

>  <name>  (166) 
BKBUGLUAVDMRSE-UHFFFAOYSA-N-P8

>  <smiles>  (166) 
COc1c(F)cccc1C(=O)NC1COCCC1(F)F

>  <subsites>  (166) 


>  <distance_score>  (166) 
0.927356

$$$$
YUWXNALADQNLEL-UHFFFAOYSA-N-P10
     RDKit          3D

 20 21  0  0  0  0  0  0  0  0999 V2000
    4.9172   -8.2761   23.2405 C   0  0  0  0  0  0  0  0  0  0  0  0
    4.7327   -9.7501   23.0276 C   0  0  0  0  0  0  0  0  0  0  0  0
    5.4639  -10.3340   21.9906 C   0  0  0  0  0  0  0  0  0  0  0  0
    5.4093  -11.7055   21.7903 C   0  0  0  0  0  0  0  0  0  0  0  0
    4.6817  -12.5249   22.6255 C   0  0  0  0  0  0  0  0  0  0  0  0
    3.9379  -11.9725   23.6512 C   0  0  0  0  0  0  0  0  0  0  0  0
    3.3022  -12.8535   24.5178 N   0  0  0  0  0  0  0  0  0  0  0  0
    3.4605  -14.4004   24.6893 C   0  0  0  0  0  0  0  0  0  0  0  0
    4.0938  -15.1725   24.0724 O   0  0  0  0  0  0  0  0  0  0  0  0
    2.5272  -14.9131   25.8573 C   0  0  0  0  0  0  0  0  0  0  0  0
    1.1487  -15.2480   25.3296 N   0  0  0  0  0  0  0  0  0  0  0  0
    0.4702  -14.1332   24.6594 C   0  0  0  0  0  0  0  0  0  0  0  0
    1.1473  -16.4069   24.4179 C   0  0  0  0  0  0  0  0  0  0  0  0
    3.2924  -16.1590   26.4206 C   0  0  0  0  0  0  0  0  0  0  0  0
    2.6008  -16.7329   27.6313 C   0  0  0  0  0  0  0  0  0  0  0  0
    2.5532  -15.7877   28.6888 O   0  0  0  0  0  0  0  0  0  0  0  0
    1.8309  -14.6291   28.3005 C   0  0  0  0  0  0  0  0  0  0  0  0
    2.4245  -13.9584   27.0677 C   0  0  0  0  0  0  0  0  0  0  0  0
    3.8996  -10.5765   23.8060 C   0  0  0  0  0  0  0  0  0  0  0  0
    2.7668   -9.8901   24.9077 Cl  0  0  0  0  0  0  0  0  0  0  0  0
  1  2  1  0
  2  3  2  0
  3  4  1  0
  4  5  2  0
  5  6  1  0
  6  7  1  0
  7  8  1  0
  8  9  2  0
  8 10  1  0
 10 11  1  0
 11 12  1  0
 11 13  1  0
 10 14  1  0
 14 15  1  0
 15 16  1  0
 16 17  1  0
 17 18  1  0
  6 19  2  0
 19 20  1  0
 19  2  1  0
 18 10  1  0
M  END
>  <inspiration_score>  (167) 
0.633

>  <HIPPO Pose ID>  (167) 
792005

>  <ref_pdb>  (167) 
x0485c

>  <ref_mols>  (167) 
x0419c

>  <HIPPO Compound ID>  (167) 
632886

>  <energy_score>  (167) 
-59.979901

>  <tags>  (167) 
CpKRS_FrAncestor_bulkdock_iter1,CpKRS_FrAncestor_bulkdock_iter1_cluster_best5,fragmenstein_placed,CpKRS_FrAncestor_bulkdock_iter1_exported,BulkDock Fragalysis export

>  <inchikey>  (167) 
YUWXNALADQNLEL-UHFFFAOYSA-N

>  <placement_batch>  (167) 
CpKRS_FrAncestor_bulkdock_iter1_cluster_best5

>  <alias>  (167) 
YUWXNALADQNLEL-UHFFFAOYSA-N-P10

>  <name>  (167) 
YUWXNALADQNLEL-UHFFFAOYSA-N-P10

>  <smiles>  (167) 
Cc1cccc(NC(=O)C2(N(C)C)CCOCC2)c1Cl

>  <subsites>  (167) 


>  <distance_score>  (167) 
0.842307

$$$$
C723311-P49
     RDKit          3D

 15 15  0  0  0  0  0  0  0  0999 V2000
    1.2151   -8.9110   23.2798 C   0  0  0  0  0  0  0  0  0  0  0  0
    2.1647   -9.6421   23.1863 C   0  0  0  0  0  0  0  0  0  0  0  0
    3.2644  -10.6321   23.1784 C   0  0  1  0  0  0  0  0  0  0  0  0
    4.6145   -9.9803   23.5437 C   0  0  0  0  0  0  0  0  0  0  0  0
    4.5912   -9.3480   24.8245 O   0  0  0  0  0  0  0  0  0  0  0  0
    2.8768  -11.6781   24.0881 N   0  0  0  0  0  0  0  0  0  0  0  0
    3.7099  -12.7873   24.7468 C   0  0  0  0  0  0  0  0  0  0  0  0
    4.8265  -13.0797   24.5999 O   0  0  0  0  0  0  0  0  0  0  0  0
    2.8856  -13.5437   25.7413 C   0  0  0  0  0  0  0  0  0  0  0  0
    1.6640  -13.1323   26.2562 C   0  0  0  0  0  0  0  0  0  0  0  0
    1.0044  -14.1989   27.4068 S   0  0  0  0  0  0  0  0  0  0  0  0
    2.3820  -15.1932   27.3504 C   0  0  0  0  0  0  0  0  0  0  0  0
    2.4921  -16.3464   28.2840 C   0  0  0  0  0  0  0  0  0  0  0  0
    3.2940  -14.7875   26.3885 C   0  0  0  0  0  0  0  0  0  0  0  0
    4.5715  -15.5178   26.0961 C   0  0  0  0  0  0  0  0  0  0  0  0
  1  2  3  0
  3  2  1  1
  3  4  1  0
  4  5  1  0
  3  6  1  0
  6  7  1  0
  7  8  2  0
  7  9  1  0
  9 10  2  0
 10 11  1  0
 11 12  1  0
 12 13  1  0
 12 14  2  0
 14 15  1  0
 14  9  1  0
M  END
>  <inspiration_score>  (168) 
0.731

>  <HIPPO Pose ID>  (168) 
827166

>  <ref_pdb>  (168) 
x0414b

>  <ref_mols>  (168) 
x0504b

>  <HIPPO Compound ID>  (168) 
723311

>  <energy_score>  (168) 
-211.442823

>  <tags>  (168) 
CpKRS_FrAncestor_bulkdock_iter1,CpKRS_FrAncestor_bulkdock_iter1_cluster_best5,fragmenstein_placed,CpKRS_FrAncestor_bulkdock_iter1_exported,BulkDock Fragalysis export

>  <inchikey>  (168) 
RHHLWBNYPJOQLI-UHFFFAOYSA-N

>  <placement_batch>  (168) 
CpKRS_FrAncestor_bulkdock_iter1_cluster_best5

>  <alias>  (168) 
C723311-P49

>  <name>  (168) 
C723311-P49

>  <smiles>  (168) 
C#C[C@@H](CO)NC(=O)c1csc(C)c1C

>  <subsites>  (168) 


>  <distance_score>  (168) 
0.47964

$$$$
C724056-P49
     RDKit          3D

 15 15  0  0  0  0  0  0  0  0999 V2000
    5.4904   -7.9381   22.6647 C   0  0  0  0  0  0  0  0  0  0  0  0
    5.2052   -8.8681   23.3644 C   0  0  0  0  0  0  0  0  0  0  0  0
    4.7865  -10.0190   24.1769 C   0  0  0  0  0  0  0  0  0  0  0  0
    3.6151  -10.8087   23.5450 C   0  0  0  0  0  0  0  0  0  0  0  0
    4.0592  -11.4333   22.2160 C   0  0  0  0  0  0  0  0  0  0  0  0
    2.3958   -9.8972   23.3302 C   0  0  0  0  0  0  0  0  0  0  0  0
    3.1993  -11.8809   24.4354 N   0  0  0  0  0  0  0  0  0  0  0  0
    3.9644  -13.1159   24.9364 C   0  0  0  0  0  0  0  0  0  0  0  0
    5.0225  -13.5128   24.6563 O   0  0  0  0  0  0  0  0  0  0  0  0
    3.1540  -13.8514   25.9023 C   0  0  0  0  0  0  0  0  0  0  0  0
    3.5535  -14.8946   26.7128 C   0  0  0  0  0  0  0  0  0  0  0  0
    2.5059  -15.2743   27.6010 C   0  0  0  0  0  0  0  0  0  0  0  0
    2.6411  -16.2853   28.6700 C   0  0  0  0  0  0  0  0  0  0  0  0
    1.3407  -14.6442   27.4469 N   0  0  0  0  0  0  0  0  0  0  0  0
    1.5121  -13.5237   26.2407 S   0  0  0  0  0  0  0  0  0  0  0  0
  1  2  3  0
  2  3  1  0
  3  4  1  0
  4  5  1  0
  4  6  1  0
  4  7  1  0
  7  8  1  0
  8  9  2  0
  8 10  1  0
 10 11  2  0
 11 12  1  0
 12 13  1  0
 12 14  2  0
 14 15  1  0
 15 10  1  0
M  END
>  <inspiration_score>  (169) 
0.698

>  <HIPPO Pose ID>  (169) 
829336

>  <ref_pdb>  (169) 
x0421b

>  <ref_mols>  (169) 
x0504b

>  <HIPPO Compound ID>  (169) 
724056

>  <energy_score>  (169) 
-233.136709

>  <tags>  (169) 
CpKRS_FrAncestor_bulkdock_iter1,CpKRS_FrAncestor_bulkdock_iter1_cluster_best5,fragmenstein_placed,CpKRS_FrAncestor_bulkdock_iter1_exported,BulkDock Fragalysis export

>  <inchikey>  (169) 
UCGNTZXLIFSHSH-UHFFFAOYSA-N

>  <placement_batch>  (169) 
CpKRS_FrAncestor_bulkdock_iter1_cluster_best5

>  <alias>  (169) 
C724056-P49

>  <name>  (169) 
C724056-P49

>  <smiles>  (169) 
C#CCC(C)(C)NC(=O)c1cc(C)ns1

>  <subsites>  (169) 


>  <distance_score>  (169) 
0.595681

$$$$
OHZIXNQNUQDQTD-UHFFFAOYSA-N-P40
     RDKit          3D

 15 15  0  0  0  0  0  0  0  0999 V2000
    4.4664  -19.1566   25.4500 C   0  0  0  0  0  0  0  0  0  0  0  0
    4.2902  -17.7066   25.5409 C   0  0  0  0  0  0  0  0  0  0  0  0
    4.1933  -16.5092   25.5825 C   0  0  0  0  0  0  0  0  0  0  0  0
    4.1401  -15.0404   25.6543 C   0  0  0  0  0  0  0  0  0  0  0  0
    4.4044  -14.4700   24.3445 N   0  0  0  0  0  0  0  0  0  0  0  0
    4.4750  -13.0847   24.1767 C   0  0  0  0  0  0  0  0  0  0  0  0
    4.5502  -12.5771   22.8791 C   0  0  0  0  0  0  0  0  0  0  0  0
    4.7680  -11.2111   22.6273 C   0  0  0  0  0  0  0  0  0  0  0  0
    4.9440  -10.2782   23.6619 C   0  0  0  0  0  0  0  0  0  0  0  0
    5.1637   -8.9080   23.4218 N   0  0  0  0  0  0  0  0  0  0  0  0
    5.4991   -8.5117   22.0538 C   0  0  0  0  0  0  0  0  0  0  0  0
    5.8974   -8.1691   24.4632 C   0  0  0  0  0  0  0  0  0  0  0  0
    4.8443  -10.7931   24.9618 C   0  0  0  0  0  0  0  0  0  0  0  0
    4.6339  -12.1559   25.2065 C   0  0  0  0  0  0  0  0  0  0  0  0
    4.5792  -12.5455   26.4889 F   0  0  0  0  0  0  0  0  0  0  0  0
  1  2  1  0
  2  3  3  0
  3  4  1  0
  4  5  1  0
  5  6  1  0
  6  7  2  0
  7  8  1  0
  8  9  2  0
  9 10  1  0
 10 11  1  0
 10 12  1  0
  9 13  1  0
 13 14  2  0
 14 15  1  0
 14  6  1  0
M  END
>  <inspiration_score>  (170) 
0.51

>  <HIPPO Pose ID>  (170) 
841625

>  <ref_pdb>  (170) 
x0504c

>  <ref_mols>  (170) 
x0602b

>  <HIPPO Compound ID>  (170) 
728295

>  <energy_score>  (170) 
-104.220923

>  <tags>  (170) 
CpKRS_FrAncestor_bulkdock_iter1,CpKRS_FrAncestor_bulkdock_iter1_cluster_best5,fragmenstein_placed,CpKRS_FrAncestor_bulkdock_iter1_exported,BulkDock Fragalysis export

>  <inchikey>  (170) 
OHZIXNQNUQDQTD-UHFFFAOYSA-N

>  <placement_batch>  (170) 
CpKRS_FrAncestor_bulkdock_iter1_cluster_best5

>  <alias>  (170) 
OHZIXNQNUQDQTD-UHFFFAOYSA-N-P40

>  <name>  (170) 
OHZIXNQNUQDQTD-UHFFFAOYSA-N-P40

>  <smiles>  (170) 
CC#CCNc1ccc(N(C)C)cc1F

>  <subsites>  (170) 


>  <distance_score>  (170) 
0.771122

$$$$
RBHZXXPTAHPUMZ-UHFFFAOYSA-N-P39
     RDKit          3D

 15 15  0  0  0  0  0  0  0  0999 V2000
    4.9641  -18.4683   25.4249 C   0  0  0  0  0  0  0  0  0  0  0  0
    4.4107  -17.3185   24.7153 C   0  0  0  0  0  0  0  0  0  0  0  0
    3.9787  -16.4237   24.0413 C   0  0  0  0  0  0  0  0  0  0  0  0
    3.4849  -15.3684   23.1479 C   0  0  0  0  0  0  0  0  0  0  0  0
    3.0915  -14.2219   23.9525 N   0  0  0  0  0  0  0  0  0  0  0  0
    3.8041  -13.0223   23.8423 C   0  0  0  0  0  0  0  0  0  0  0  0
    4.2091  -12.5038   22.6173 C   0  0  0  0  0  0  0  0  0  0  0  0
    4.7973  -11.2346   22.5195 C   0  0  0  0  0  0  0  0  0  0  0  0
    4.9518  -10.3902   23.6284 C   0  0  0  0  0  0  0  0  0  0  0  0
    5.4648   -9.1006   23.5061 N   0  0  0  0  0  0  0  0  0  0  0  0
    5.5662   -8.4870   22.1890 C   0  0  0  0  0  0  0  0  0  0  0  0
    5.4317   -8.1876   24.6461 C   0  0  0  0  0  0  0  0  0  0  0  0
    4.5741  -10.9339   24.8636 C   0  0  0  0  0  0  0  0  0  0  0  0
    4.0155  -12.2146   24.9661 C   0  0  0  0  0  0  0  0  0  0  0  0
    3.5933  -12.7982   26.5361 Cl  0  0  0  0  0  0  0  0  0  0  0  0
  1  2  1  0
  2  3  3  0
  3  4  1  0
  4  5  1  0
  5  6  1  0
  6  7  2  0
  7  8  1  0
  8  9  2  0
  9 10  1  0
 10 11  1  0
 10 12  1  0
  9 13  1  0
 13 14  2  0
 14 15  1  0
 14  6  1  0
M  END
>  <inspiration_score>  (171) 
0.486

>  <HIPPO Pose ID>  (171) 
841634

>  <ref_pdb>  (171) 
x0504c

>  <ref_mols>  (171) 
x0602a

>  <HIPPO Compound ID>  (171) 
728304

>  <energy_score>  (171) 
-105.10855

>  <tags>  (171) 
CpKRS_FrAncestor_bulkdock_iter1,CpKRS_FrAncestor_bulkdock_iter1_cluster_best5,fragmenstein_placed,CpKRS_FrAncestor_bulkdock_iter1_exported,BulkDock Fragalysis export

>  <inchikey>  (171) 
RBHZXXPTAHPUMZ-UHFFFAOYSA-N

>  <placement_batch>  (171) 
CpKRS_FrAncestor_bulkdock_iter1_cluster_best5

>  <alias>  (171) 
RBHZXXPTAHPUMZ-UHFFFAOYSA-N-P39

>  <name>  (171) 
RBHZXXPTAHPUMZ-UHFFFAOYSA-N-P39

>  <smiles>  (171) 
CC#CCNc1ccc(N(C)C)cc1Cl

>  <subsites>  (171) 


>  <distance_score>  (171) 
0.66862

$$$$
BUROGQXRKUGFRI-UHFFFAOYSA-N-P21
     RDKit          3D

 15 15  0  0  0  0  0  0  0  0999 V2000
   29.2799    2.4350   28.2106 C   0  0  0  0  0  0  0  0  0  0  0  0
   29.1061    3.4575   27.6045 C   0  0  0  0  0  0  0  0  0  0  0  0
   28.9027    4.7107   26.8661 C   0  0  0  0  0  0  0  0  0  0  0  0
   28.0248    5.5744   27.6520 N   0  0  0  0  0  0  0  0  0  0  0  0
   27.4045    6.9356   26.8853 S   0  0  0  0  0  0  0  0  0  0  0  0
   27.1939    7.8834   27.9547 O   0  0  0  0  0  0  0  0  0  0  0  0
   28.2664    7.2181   25.7604 O   0  0  0  0  0  0  0  0  0  0  0  0
   25.8288    6.4419   26.2727 C   0  0  0  0  0  0  0  0  0  0  0  0
   25.3903    5.1343   26.4874 C   0  0  0  0  0  0  0  0  0  0  0  0
   24.1847    4.7643   25.9402 C   0  0  0  0  0  0  0  0  0  0  0  0
   23.4015    5.6072   25.2441 N   0  0  0  0  0  0  0  0  0  0  0  0
   23.8245    6.8826   25.0494 C   0  0  0  0  0  0  0  0  0  0  0  0
   22.8893    7.7530   24.2580 C   0  0  0  0  0  0  0  0  0  0  0  0
   25.0458    7.3454   25.5454 C   0  0  0  0  0  0  0  0  0  0  0  0
   25.5406    8.9753   25.2462 Cl  0  0  0  0  0  0  0  0  0  0  0  0
  1  2  3  0
  2  3  1  0
  3  4  1  0
  4  5  1  0
  5  6  2  0
  5  7  2  0
  5  8  1  0
  8  9  2  0
  9 10  1  0
 10 11  2  0
 11 12  1  0
 12 13  1  0
 12 14  2  0
 14 15  1  0
 14  8  1  0
M  END
>  <inspiration_score>  (172) 
0.35

>  <HIPPO Pose ID>  (172) 
841675

>  <ref_pdb>  (172) 
x0504c

>  <ref_mols>  (172) 
x0472a

>  <HIPPO Compound ID>  (172) 
728318

>  <energy_score>  (172) 
-242.917681

>  <tags>  (172) 
CpKRS_FrAncestor_bulkdock_iter1,CpKRS_FrAncestor_bulkdock_iter1_cluster_best5,fragmenstein_placed,CpKRS_FrAncestor_bulkdock_iter1_exported,BulkDock Fragalysis export

>  <inchikey>  (172) 
BUROGQXRKUGFRI-UHFFFAOYSA-N

>  <placement_batch>  (172) 
CpKRS_FrAncestor_bulkdock_iter1_cluster_best5

>  <alias>  (172) 
BUROGQXRKUGFRI-UHFFFAOYSA-N-P21

>  <name>  (172) 
BUROGQXRKUGFRI-UHFFFAOYSA-N-P21

>  <smiles>  (172) 
C#CCNS(=O)(=O)c1ccnc(C)c1Cl

>  <subsites>  (172) 


>  <distance_score>  (172) 
0.553124

$$$$
YUBOPZNGMXRWED-UHFFFAOYSA-N-P52
     RDKit          3D

 15 15  0  0  0  0  0  0  0  0999 V2000
   22.4535    7.9503   21.5202 C   0  0  0  0  0  0  0  0  0  0  0  0
   22.0244    7.3817   22.4881 C   0  0  0  0  0  0  0  0  0  0  0  0
   21.5629    6.6882   23.7009 C   0  0  0  0  0  0  0  0  0  0  0  0
   20.9760    7.6496   24.6155 N   0  0  0  0  0  0  0  0  0  0  0  0
   21.9316    8.4319   25.7318 S   0  0  0  0  0  0  0  0  0  0  0  0
   21.1050    9.4267   26.3834 O   0  0  0  0  0  0  0  0  0  0  0  0
   22.5882    7.4040   26.5149 O   0  0  0  0  0  0  0  0  0  0  0  0
   23.1596    9.2947   24.7771 C   0  0  0  0  0  0  0  0  0  0  0  0
   24.4503    8.8941   24.9810 N   0  0  0  0  0  0  0  0  0  0  0  0
   25.3887    9.5133   24.2283 C   0  0  0  0  0  0  0  0  0  0  0  0
   25.0933   10.4889   23.2876 C   0  0  0  0  0  0  0  0  0  0  0  0
   26.4577   11.2679   22.2472 Br  0  0  0  0  0  0  0  0  0  0  0  0
   23.7667   10.8718   23.1126 C   0  0  0  0  0  0  0  0  0  0  0  0
   22.7753   10.2750   23.8825 C   0  0  0  0  0  0  0  0  0  0  0  0
   21.4937   10.6225   23.6918 F   0  0  0  0  0  0  0  0  0  0  0  0
  1  2  3  0
  2  3  1  0
  3  4  1  0
  4  5  1  0
  5  6  2  0
  5  7  2  0
  5  8  1  0
  8  9  2  0
  9 10  1  0
 10 11  2  0
 11 12  1  0
 11 13  1  0
 13 14  2  0
 14 15  1  0
 14  8  1  0
M  END
>  <inspiration_score>  (173) 
0.905

>  <HIPPO Pose ID>  (173) 
841722

>  <ref_pdb>  (173) 
x0504c

>  <ref_mols>  (173) 
x0639a

>  <HIPPO Compound ID>  (173) 
728339

>  <energy_score>  (173) 
-158.872918

>  <tags>  (173) 
CpKRS_FrAncestor_bulkdock_iter1,CpKRS_FrAncestor_bulkdock_iter1_cluster_best5,fragmenstein_placed,CpKRS_FrAncestor_bulkdock_iter1_exported,BulkDock Fragalysis export

>  <inchikey>  (173) 
YUBOPZNGMXRWED-UHFFFAOYSA-N

>  <placement_batch>  (173) 
CpKRS_FrAncestor_bulkdock_iter1_cluster_best5

>  <alias>  (173) 
YUBOPZNGMXRWED-UHFFFAOYSA-N-P52

>  <name>  (173) 
YUBOPZNGMXRWED-UHFFFAOYSA-N-P52

>  <smiles>  (173) 
C#CCNS(=O)(=O)c1ncc(Br)cc1F

>  <subsites>  (173) 


>  <distance_score>  (173) 
0.303212

$$$$
RXDMVCHWRWKLGH-UHFFFAOYSA-N-P6
     RDKit          3D

 15 15  0  0  0  0  0  0  0  0999 V2000
    1.2978  -11.1130   25.3177 C   0  0  0  0  0  0  0  0  0  0  0  0
    2.1929  -11.6610   26.4329 C   0  0  1  0  0  0  0  0  0  0  0  0
    2.2915  -13.4822   26.2798 S   0  0  0  0  0  0  0  0  0  0  0  0
    3.8431  -13.6434   25.3574 C   0  0  0  0  0  0  0  0  0  0  0  0
    4.3165  -12.3790   24.6384 C   0  0  0  0  0  0  0  0  0  0  0  0
    4.5927  -11.2879   25.5503 N   0  0  0  0  0  0  0  0  0  0  0  0
    5.5552  -10.2743   25.1393 C   0  0  0  0  0  0  0  0  0  0  0  0
    5.1762   -9.1531   24.1071 C   0  0  0  0  0  0  0  0  0  0  0  0
    6.4073   -8.2270   23.9646 C   0  0  0  0  0  0  0  0  0  0  0  0
    4.1177   -8.2934   24.7839 C   0  0  0  0  0  0  0  0  0  0  0  0
    4.6909   -9.6372   22.7781 N   0  0  0  0  0  0  0  0  0  0  0  0
    4.2665   -8.5981   21.8491 C   0  0  0  0  0  0  0  0  0  0  0  0
    5.6147  -10.5009   22.0603 C   0  0  0  0  0  0  0  0  0  0  0  0
    3.5575  -10.9288   26.5235 C   0  0  2  0  0  0  0  0  0  0  0  0
    4.1796  -11.1460   27.8939 C   0  0  0  0  0  0  0  0  0  0  0  0
  2  1  1  6
  2  3  1  0
  3  4  1  0
  4  5  1  0
  5  6  1  0
  6  7  1  0
  7  8  1  0
  8  9  1  0
  8 10  1  0
  8 11  1  0
 11 12  1  0
 11 13  1  0
  6 14  1  0
 14 15  1  1
 14  2  1  0
M  END
>  <inspiration_score>  (174) 
0.473

>  <HIPPO Pose ID>  (174) 
933261

>  <ref_pdb>  (174) 
x0540a

>  <ref_mols>  (174) 
x0414a

>  <HIPPO Compound ID>  (174) 
807826

>  <energy_score>  (174) 
-78.488622

>  <tags>  (174) 
CpKRS_FrAncestor_bulkdock_iter1,CpKRS_FrAncestor_bulkdock_iter1_cluster_best5,fragmenstein_placed,CpKRS_FrAncestor_bulkdock_iter1_exported,BulkDock Fragalysis export

>  <inchikey>  (174) 
RXDMVCHWRWKLGH-UHFFFAOYSA-N

>  <placement_batch>  (174) 
CpKRS_FrAncestor_bulkdock_iter1_cluster_best5

>  <alias>  (174) 
RXDMVCHWRWKLGH-UHFFFAOYSA-N-P6

>  <name>  (174) 
RXDMVCHWRWKLGH-UHFFFAOYSA-N-P6

>  <smiles>  (174) 
CC1SCCN(CC(C)(C)N(C)C)C1C

>  <subsites>  (174) 


>  <distance_score>  (174) 
0.962594

$$$$
KSDVSILJQIPUQK-CQSZACIVSA-N-P56
     RDKit          3D

 22 23  0  0  0  0  0  0  0  0999 V2000
    6.5145  -15.0270   26.3479 C   0  0  0  0  0  0  0  0  0  0  0  0
    5.3911  -15.4346   26.4733 C   0  0  0  0  0  0  0  0  0  0  0  0
    3.9297  -15.8642   26.5056 C   0  0  0  0  0  0  0  0  0  0  0  0
    4.0154  -17.3239   26.1710 C   0  0  0  0  0  0  0  0  0  0  0  0
    4.1393  -18.4696   25.8237 C   0  0  0  0  0  0  0  0  0  0  0  0
    3.5284  -15.5936   27.9981 C   0  0  0  0  0  0  0  0  0  0  0  0
    2.1273  -15.6848   28.2390 O   0  0  0  0  0  0  0  0  0  0  0  0
    1.5346  -14.9391   27.1867 C   0  0  0  0  0  0  0  0  0  0  0  0
    2.0794  -15.5222   25.8706 C   0  0  0  0  0  0  0  0  0  0  0  0
    3.4302  -15.0194   25.3214 N   0  0  0  0  0  0  0  0  0  0  0  0
    3.4136  -13.5299   25.1197 C   0  0  0  0  0  0  0  0  0  0  0  0
    3.7033  -12.6652   25.8493 O   0  0  0  0  0  0  0  0  0  0  0  0
    3.0277  -13.3043   23.6728 C   0  0  0  0  0  0  0  0  0  0  0  0
    2.6351  -11.8856   23.2769 C   0  0  1  0  0  0  0  0  0  0  0  0
    1.2503  -11.5380   23.8527 C   0  0  0  0  0  0  0  0  0  0  0  0
    3.6700  -10.7844   23.4536 C   0  0  0  0  0  0  0  0  0  0  0  0
    4.6660  -10.5848   22.4828 C   0  0  0  0  0  0  0  0  0  0  0  0
    5.5372   -9.4941   22.5726 C   0  0  0  0  0  0  0  0  0  0  0  0
    5.4468   -8.6241   23.6527 C   0  0  0  0  0  0  0  0  0  0  0  0
    6.2647   -7.5672   23.7351 F   0  0  0  0  0  0  0  0  0  0  0  0
    4.4988   -8.8212   24.6418 C   0  0  0  0  0  0  0  0  0  0  0  0
    3.6122   -9.8921   24.5368 C   0  0  0  0  0  0  0  0  0  0  0  0
  1  2  3  0
  2  3  1  0
  3  4  1  0
  4  5  3  0
  3  6  1  0
  6  7  1  0
  7  8  1  0
  8  9  1  0
  9 10  1  0
 10 11  1  0
 11 12  2  0
 11 13  1  0
 13 14  1  0
 14 15  1  1
 14 16  1  0
 16 17  2  0
 17 18  1  0
 18 19  2  0
 19 20  1  0
 19 21  1  0
 21 22  2  0
 10  3  1  0
 22 16  1  0
M  END
>  <inspiration_score>  (175) 
0.576

>  <HIPPO Pose ID>  (175) 
938311

>  <ref_pdb>  (175) 
x0540a

>  <ref_mols>  (175) 
x0654a

>  <HIPPO Compound ID>  (175) 
801099

>  <energy_score>  (175) 
-1129.484219

>  <tags>  (175) 
CpKRS_FrAncestor_bulkdock_iter1,CpKRS_FrAncestor_bulkdock_iter1_cluster_best5,fragmenstein_placed,CpKRS_FrAncestor_bulkdock_iter1_exported,BulkDock Fragalysis export

>  <inchikey>  (175) 
KSDVSILJQIPUQK-UHFFFAOYSA-N

>  <placement_batch>  (175) 
CpKRS_FrAncestor_bulkdock_iter1_cluster_best5

>  <alias>  (175) 
KSDVSILJQIPUQK-CQSZACIVSA-N-P56

>  <name>  (175) 
KSDVSILJQIPUQK-CQSZACIVSA-N-P56

>  <smiles>  (175) 
C#CC1(C#C)COCCN1C(=O)C[C@@H](C)c1ccc(F)cc1

>  <subsites>  (175) 


>  <distance_score>  (175) 
0.864068

$$$$
C811907-P34
     RDKit          3D

 16 17  0  0  0  0  0  0  0  0999 V2000
    5.1196  -15.4782   26.9736 C   0  0  0  0  0  0  0  0  0  0  0  0
    3.8475  -14.7144   26.8219 C   0  0  0  0  0  0  0  0  0  0  0  0
    2.8375  -14.9282   27.7632 C   0  0  0  0  0  0  0  0  0  0  0  0
    1.6584  -14.2083   27.6870 C   0  0  0  0  0  0  0  0  0  0  0  0
    1.4841  -13.3358   26.6291 C   0  0  0  0  0  0  0  0  0  0  0  0
    2.4042  -13.1158   25.6731 N   0  0  0  0  0  0  0  0  0  0  0  0
    3.5896  -13.7980   25.7964 C   0  0  0  0  0  0  0  0  0  0  0  0
    4.6385  -13.4133   24.7628 C   0  0  0  0  0  0  0  0  0  0  0  0
    5.7355  -13.7843   24.8685 O   0  0  0  0  0  0  0  0  0  0  0  0
    3.9928  -12.5085   23.7064 N   0  0  0  0  0  0  0  0  0  0  0  0
    4.5341  -11.9464   22.5080 C   0  0  0  0  0  0  0  0  0  0  0  0
    4.9505  -10.5329   22.7372 C   0  0  0  0  0  0  0  0  0  0  0  0
    5.6612   -9.9917   23.7862 C   0  0  0  0  0  0  0  0  0  0  0  0
    5.8951   -8.5979   23.6596 C   0  0  0  0  0  0  0  0  0  0  0  0
    5.3836   -8.1248   22.4782 C   0  0  0  0  0  0  0  0  0  0  0  0
    4.6379   -9.3446   21.5628 S   0  0  0  0  0  0  0  0  0  0  0  0
  1  2  1  0
  2  3  2  0
  3  4  1  0
  4  5  2  0
  5  6  1  0
  6  7  2  0
  7  8  1  0
  8  9  2  0
  8 10  1  0
 10 11  1  0
 11 12  1  0
 12 13  2  0
 13 14  1  0
 14 15  2  0
 15 16  1  0
  7  2  1  0
 16 12  1  0
M  END
>  <inspiration_score>  (176) 
0.872

>  <HIPPO Pose ID>  (176) 
944776

>  <ref_pdb>  (176) 
x0419a

>  <ref_mols>  (176) 
x0492a

>  <HIPPO Compound ID>  (176) 
811907

>  <energy_score>  (176) 
-52.252996

>  <tags>  (176) 
CpKRS_FrAncestor_bulkdock_iter1,CpKRS_FrAncestor_bulkdock_iter1_cluster_best5,fragmenstein_placed,CpKRS_FrAncestor_bulkdock_iter1_exported,BulkDock Fragalysis export

>  <inchikey>  (176) 
MNIMSOFUUPFBLR-UHFFFAOYSA-N

>  <placement_batch>  (176) 
CpKRS_FrAncestor_bulkdock_iter1_cluster_best5

>  <alias>  (176) 
C811907-P34

>  <name>  (176) 
C811907-P34

>  <smiles>  (176) 
Cc1cccnc1C(=O)NCc1cccs1

>  <subsites>  (176) 


>  <distance_score>  (176) 
0.411141

$$$$
VXBRHLWTNJNIKE-SSDOTTSWSA-N-P47
     RDKit          3D

 16 16  0  0  0  0  0  0  0  0999 V2000
    5.0231    2.4249   43.2069 C   0  0  0  0  0  0  0  0  0  0  0  0
    4.2753    2.9475   43.9860 C   0  0  0  0  0  0  0  0  0  0  0  0
    3.4306    3.6296   44.9157 C   0  0  0  0  0  0  0  0  0  0  0  0
    3.2613    3.0577   46.5140 S   0  0  0  0  0  0  0  0  0  0  0  0
    2.2159    4.3258   46.9383 C   0  0  0  0  0  0  0  0  0  0  0  0
    1.9934    5.1794   45.8816 C   0  0  0  0  0  0  0  0  0  0  0  0
    2.6919    4.7851   44.6811 C   0  0  0  0  0  0  0  0  0  0  0  0
    2.6036    5.4378   43.3555 C   0  0  0  0  0  0  0  0  0  0  0  0
    2.6183    4.7729   42.3999 O   0  0  0  0  0  0  0  0  0  0  0  0
    2.4573    6.9620   43.5076 N   0  0  0  0  0  0  0  0  0  0  0  0
    2.2005    7.9914   42.5112 C   0  0  2  0  0  0  0  0  0  0  0  0
    1.4974    7.4464   41.2725 C   0  0  0  0  0  0  0  0  0  0  0  0
    3.5475    8.6474   42.0966 C   0  0  0  0  0  0  0  0  0  0  0  0
    4.5781    8.2342   42.4601 O   0  0  0  0  0  0  0  0  0  0  0  0
    3.2160    9.8397   41.1548 N   0  0  0  0  0  0  0  0  0  0  0  0
    4.0805   10.6970   40.4016 C   0  0  0  0  0  0  0  0  0  0  0  0
  1  2  3  0
  2  3  1  0
  3  4  1  0
  4  5  1  0
  5  6  2  0
  6  7  1  0
  7  8  1  0
  8  9  2  0
  8 10  1  0
 10 11  1  0
 11 12  1  6
 11 13  1  0
 13 14  2  0
 13 15  1  0
 15 16  1  0
  7  3  2  0
M  END
>  <inspiration_score>  (177) 
0.652

>  <HIPPO Pose ID>  (177) 
966652

>  <ref_pdb>  (177) 
x0540a

>  <ref_mols>  (177) 
x0504c

>  <HIPPO Compound ID>  (177) 
643873

>  <energy_score>  (177) 
-111.113319

>  <tags>  (177) 
CpKRS_FrAncestor_bulkdock_iter1,CpKRS_FrAncestor_bulkdock_iter1_cluster_best5,fragmenstein_placed,CpKRS_FrAncestor_bulkdock_iter1_exported,BulkDock Fragalysis export

>  <inchikey>  (177) 
VXBRHLWTNJNIKE-UHFFFAOYSA-N

>  <placement_batch>  (177) 
CpKRS_FrAncestor_bulkdock_iter1_cluster_best5

>  <alias>  (177) 
VXBRHLWTNJNIKE-SSDOTTSWSA-N-P47

>  <name>  (177) 
VXBRHLWTNJNIKE-SSDOTTSWSA-N-P47

>  <smiles>  (177) 
C#Cc1sccc1C(=O)N[C@H](C)C(=O)NC

>  <subsites>  (177) 


>  <distance_score>  (177) 
0.927914

$$$$
OYIIRGDJPWDOIU-SECBINFHSA-N-P33
     RDKit          3D

 16 17  0  0  0  0  0  0  0  0999 V2000
    1.6094  -14.9290   28.9593 C   0  0  0  0  0  0  0  0  0  0  0  0
    2.6680  -15.0398   27.9130 C   0  0  0  0  0  0  0  0  0  0  0  0
    3.7515  -15.8622   28.1036 C   0  0  0  0  0  0  0  0  0  0  0  0
    4.7315  -15.7583   27.1563 C   0  0  0  0  0  0  0  0  0  0  0  0
    4.6805  -14.9211   26.1189 N   0  0  0  0  0  0  0  0  0  0  0  0
    3.5813  -14.1738   25.9777 C   0  0  0  0  0  0  0  0  0  0  0  0
    3.5525  -13.2496   24.9569 N   0  0  0  0  0  0  0  0  0  0  0  0
    4.6187  -13.2810   23.9756 C   0  0  0  0  0  0  0  0  0  0  0  0
    4.8567  -11.8654   23.4685 C   0  0  0  0  0  0  0  0  0  0  0  0
    3.5957  -11.2292   22.9054 C   0  0  0  0  0  0  0  0  0  0  0  0
    2.3301  -12.0352   23.2008 C   0  0  0  0  0  0  0  0  0  0  0  0
    2.2776  -12.6175   24.6220 C   0  0  2  0  0  0  0  0  0  0  0  0
    1.8889  -11.5112   25.6035 C   0  0  0  0  0  0  0  0  0  0  0  0
    0.6138  -11.1108   25.3257 F   0  0  0  0  0  0  0  0  0  0  0  0
    2.7009  -10.4364   25.4284 F   0  0  0  0  0  0  0  0  0  0  0  0
    2.5532  -14.2176   26.8486 N   0  0  0  0  0  0  0  0  0  0  0  0
  1  2  1  0
  2  3  2  0
  3  4  1  0
  4  5  2  0
  5  6  1  0
  6  7  1  0
  7  8  1  0
  8  9  1  0
  9 10  1  0
 10 11  1  0
 11 12  1  0
 12 13  1  1
 13 14  1  0
 13 15  1  0
  6 16  2  0
 16  2  1  0
 12  7  1  0
M  END
>  <inspiration_score>  (178) 
0.54

>  <HIPPO Pose ID>  (178) 
970636

>  <ref_pdb>  (178) 
x0504a

>  <ref_mols>  (178) 
x0489a

>  <HIPPO Compound ID>  (178) 
647471

>  <energy_score>  (178) 
-314.423196

>  <tags>  (178) 
CpKRS_FrAncestor_bulkdock_iter1,CpKRS_FrAncestor_bulkdock_iter1_cluster_best5,fragmenstein_placed,CpKRS_FrAncestor_bulkdock_iter1_exported,BulkDock Fragalysis export

>  <inchikey>  (178) 
OYIIRGDJPWDOIU-UHFFFAOYSA-N

>  <placement_batch>  (178) 
CpKRS_FrAncestor_bulkdock_iter1_cluster_best5

>  <alias>  (178) 
OYIIRGDJPWDOIU-SECBINFHSA-N-P33

>  <name>  (178) 
OYIIRGDJPWDOIU-SECBINFHSA-N-P33

>  <smiles>  (178) 
Cc1ccnc(N2CCCC[C@@H]2C(F)F)n1

>  <subsites>  (178) 


>  <distance_score>  (178) 
0.616692

$$$$
RGDVNWHDNLFPLH-UHFFFAOYSA-N-P43
     RDKit          3D

 17 18  0  0  0  0  0  0  0  0999 V2000
    6.9100    5.3977   40.7063 C   0  0  0  0  0  0  0  0  0  0  0  0
    5.5087    5.4288   40.1180 C   0  0  0  0  0  0  0  0  0  0  0  0
    5.3153    4.0490   39.5340 C   0  0  0  0  0  0  0  0  0  0  0  0
    5.4369    6.4666   38.9817 C   0  0  0  0  0  0  0  0  0  0  0  0
    5.4739    7.8969   39.5025 C   0  0  0  0  0  0  0  0  0  0  0  0
    4.4772    8.0939   40.6340 C   0  0  0  0  0  0  0  0  0  0  0  0
    4.6303    7.1183   41.6681 O   0  0  0  0  0  0  0  0  0  0  0  0
    4.4428    5.7820   41.1731 C   0  0  2  0  0  0  0  0  0  0  0  0
    4.3522    4.7630   42.3463 C   0  0  0  0  0  0  0  0  0  0  0  0
    4.7215    3.6576   42.2944 O   0  0  0  0  0  0  0  0  0  0  0  0
    3.6008    5.5189   43.4720 N   0  0  0  0  0  0  0  0  0  0  0  0
    3.2500    5.1133   44.7451 C   0  0  0  0  0  0  0  0  0  0  0  0
    3.5907    3.8412   45.2065 C   0  0  0  0  0  0  0  0  0  0  0  0
    3.1824    3.4231   46.4681 C   0  0  0  0  0  0  0  0  0  0  0  0
    2.4118    4.2685   47.2520 C   0  0  0  0  0  0  0  0  0  0  0  0
    2.0757    5.5381   46.7856 C   0  0  0  0  0  0  0  0  0  0  0  0
    2.5224    5.9776   45.5467 C   0  0  0  0  0  0  0  0  0  0  0  0
  1  2  1  0
  2  3  1  0
  2  4  1  0
  4  5  1  0
  5  6  1  0
  6  7  1  0
  7  8  1  0
  8  9  1  1
  9 10  2  0
  9 11  1  0
 11 12  1  0
 12 13  2  0
 13 14  1  0
 14 15  2  0
 15 16  1  0
 16 17  2  0
  8  2  1  0
 17 12  1  0
M  END
>  <inspiration_score>  (179) 
0.699

>  <HIPPO Pose ID>  (179) 
1009164

>  <ref_pdb>  (179) 
x0502a

>  <ref_mols>  (179) 
x0606c

>  <HIPPO Compound ID>  (179) 
670015

>  <energy_score>  (179) 
-46.821436

>  <tags>  (179) 
CpKRS_FrAncestor_bulkdock_iter1,CpKRS_FrAncestor_bulkdock_iter1_cluster_best5,fragmenstein_placed,CpKRS_FrAncestor_bulkdock_iter1_exported,BulkDock Fragalysis export

>  <inchikey>  (179) 
RGDVNWHDNLFPLH-UHFFFAOYSA-N

>  <placement_batch>  (179) 
CpKRS_FrAncestor_bulkdock_iter1_cluster_best5

>  <alias>  (179) 
RGDVNWHDNLFPLH-UHFFFAOYSA-N-P43

>  <name>  (179) 
RGDVNWHDNLFPLH-UHFFFAOYSA-N-P43

>  <smiles>  (179) 
CC1(C)CCCOC1C(=O)Nc1ccccc1

>  <subsites>  (179) 


>  <distance_score>  (179) 
0.605898

$$$$
VKTUDCNPHFGFJQ-UHFFFAOYSA-N-P16
     RDKit          3D

 17 18  0  0  0  0  0  0  0  0999 V2000
    5.8792  -14.0421   24.9711 O   0  0  0  0  0  0  0  0  0  0  0  0
    4.7531  -13.7939   24.8115 C   0  0  0  0  0  0  0  0  0  0  0  0
    4.0351  -13.1563   23.6145 N   0  0  0  0  0  0  0  0  0  0  0  0
    4.5607  -12.6019   22.3974 C   0  0  0  0  0  0  0  0  0  0  0  0
    4.8308  -11.1366   22.5114 C   0  0  0  0  0  0  0  0  0  0  0  0
    5.0786  -10.4113   23.6611 C   0  0  0  0  0  0  0  0  0  0  0  0
    5.4059   -8.7752   23.2913 S   0  0  0  0  0  0  0  0  0  0  0  0
    5.2284   -9.1445   21.6318 C   0  0  0  0  0  0  0  0  0  0  0  0
    4.8917  -10.3808   21.3442 N   0  0  0  0  0  0  0  0  0  0  0  0
    3.8106  -14.2211   25.8945 C   0  0  0  0  0  0  0  0  0  0  0  0
    4.2313  -15.2427   26.7637 C   0  0  0  0  0  0  0  0  0  0  0  0
    3.4493  -15.6151   27.8592 C   0  0  0  0  0  0  0  0  0  0  0  0
    2.2461  -14.9592   28.0974 C   0  0  0  0  0  0  0  0  0  0  0  0
    1.3450  -15.3285   29.5114 Cl  0  0  0  0  0  0  0  0  0  0  0  0
    1.7910  -13.9759   27.2239 C   0  0  0  0  0  0  0  0  0  0  0  0
    2.5774  -13.6112   26.1313 C   0  0  0  0  0  0  0  0  0  0  0  0
    2.1235  -12.6266   25.3397 F   0  0  0  0  0  0  0  0  0  0  0  0
  1  2  2  0
  2  3  1  0
  3  4  1  0
  4  5  1  0
  5  6  2  0
  6  7  1  0
  7  8  1  0
  8  9  2  0
  2 10  1  0
 10 11  2  0
 11 12  1  0
 12 13  2  0
 13 14  1  0
 13 15  1  0
 15 16  2  0
 16 17  1  0
  9  5  1  0
 16 10  1  0
M  END
>  <inspiration_score>  (180) 
0.763

>  <HIPPO Pose ID>  (180) 
1012682

>  <ref_pdb>  (180) 
x0502a

>  <ref_mols>  (180) 
x0426a

>  <HIPPO Compound ID>  (180) 
671200

>  <energy_score>  (180) 
-68.634313

>  <tags>  (180) 
CpKRS_FrAncestor_bulkdock_iter1,CpKRS_FrAncestor_bulkdock_iter1_cluster_best5,fragmenstein_placed,CpKRS_FrAncestor_bulkdock_iter1_exported,BulkDock Fragalysis export

>  <inchikey>  (180) 
VKTUDCNPHFGFJQ-UHFFFAOYSA-N

>  <placement_batch>  (180) 
CpKRS_FrAncestor_bulkdock_iter1_cluster_best5

>  <alias>  (180) 
VKTUDCNPHFGFJQ-UHFFFAOYSA-N-P16

>  <name>  (180) 
VKTUDCNPHFGFJQ-UHFFFAOYSA-N-P16

>  <smiles>  (180) 
O=C(NCc1cscn1)c1ccc(Cl)cc1F

>  <subsites>  (180) 


>  <distance_score>  (180) 
0.355926

$$$$
CVMOHVWQXKUICD-UHFFFAOYSA-N-P16
     RDKit          3D

 17 18  0  0  0  0  0  0  0  0999 V2000
    5.7383  -13.7194   25.1959 O   0  0  0  0  0  0  0  0  0  0  0  0
    4.6144  -13.6391   24.9064 C   0  0  0  0  0  0  0  0  0  0  0  0
    3.9524  -13.0930   23.6378 N   0  0  0  0  0  0  0  0  0  0  0  0
    4.5327  -12.6153   22.4134 C   0  0  0  0  0  0  0  0  0  0  0  0
    4.8297  -11.1500   22.4905 C   0  0  0  0  0  0  0  0  0  0  0  0
    5.1227  -10.4111   23.6223 C   0  0  0  0  0  0  0  0  0  0  0  0
    5.4403   -8.7809   23.2232 S   0  0  0  0  0  0  0  0  0  0  0  0
    5.2107   -9.1722   21.5759 C   0  0  0  0  0  0  0  0  0  0  0  0
    4.8648  -10.4116   21.3121 N   0  0  0  0  0  0  0  0  0  0  0  0
    3.6193  -14.1138   25.9282 C   0  0  0  0  0  0  0  0  0  0  0  0
    4.0303  -15.2140   26.7111 C   0  0  0  0  0  0  0  0  0  0  0  0
    3.2481  -15.6874   27.7666 C   0  0  0  0  0  0  0  0  0  0  0  0
    2.0402  -15.0668   28.0572 C   0  0  0  0  0  0  0  0  0  0  0  0
    1.6115  -13.9997   27.2742 C   0  0  0  0  0  0  0  0  0  0  0  0
    0.4239  -13.4394   27.5649 F   0  0  0  0  0  0  0  0  0  0  0  0
    2.3907  -13.5029   26.2197 C   0  0  0  0  0  0  0  0  0  0  0  0
    1.7893  -12.0983   25.4021 Cl  0  0  0  0  0  0  0  0  0  0  0  0
  1  2  2  0
  2  3  1  0
  3  4  1  0
  4  5  1  0
  5  6  2  0
  6  7  1  0
  7  8  1  0
  8  9  2  0
  2 10  1  0
 10 11  2  0
 11 12  1  0
 12 13  2  0
 13 14  1  0
 14 15  1  0
 14 16  2  0
 16 17  1  0
  9  5  1  0
 16 10  1  0
M  END
>  <inspiration_score>  (181) 
0.749

>  <HIPPO Pose ID>  (181) 
1012698

>  <ref_pdb>  (181) 
x0502a

>  <ref_mols>  (181) 
x0426a

>  <HIPPO Compound ID>  (181) 
671208

>  <energy_score>  (181) 
-72.631646

>  <tags>  (181) 
CpKRS_FrAncestor_bulkdock_iter1,CpKRS_FrAncestor_bulkdock_iter1_cluster_best5,fragmenstein_placed,CpKRS_FrAncestor_bulkdock_iter1_exported,BulkDock Fragalysis export

>  <inchikey>  (181) 
CVMOHVWQXKUICD-UHFFFAOYSA-N

>  <placement_batch>  (181) 
CpKRS_FrAncestor_bulkdock_iter1_cluster_best5

>  <alias>  (181) 
CVMOHVWQXKUICD-UHFFFAOYSA-N-P16

>  <name>  (181) 
CVMOHVWQXKUICD-UHFFFAOYSA-N-P16

>  <smiles>  (181) 
O=C(NCc1cscn1)c1cccc(F)c1Cl

>  <subsites>  (181) 


>  <distance_score>  (181) 
0.311232

$$$$
MBTGVYZTMAQXTF-UHFFFAOYSA-N-P16
     RDKit          3D

 17 18  0  0  0  0  0  0  0  0999 V2000
    5.0557  -15.9850   26.4328 C   0  0  0  0  0  0  0  0  0  0  0  0
    3.8239  -15.1547   26.6195 C   0  0  0  0  0  0  0  0  0  0  0  0
    2.9323  -15.5220   27.6442 C   0  0  0  0  0  0  0  0  0  0  0  0
    1.7786  -14.7801   27.8852 C   0  0  0  0  0  0  0  0  0  0  0  0
    1.4877  -13.6820   27.0842 C   0  0  0  0  0  0  0  0  0  0  0  0
    2.3777  -13.2960   26.0815 C   0  0  0  0  0  0  0  0  0  0  0  0
    2.0788  -12.1916   25.3784 F   0  0  0  0  0  0  0  0  0  0  0  0
    3.5579  -14.0078   25.8452 C   0  0  0  0  0  0  0  0  0  0  0  0
    4.5711  -13.4905   24.8673 C   0  0  0  0  0  0  0  0  0  0  0  0
    5.6894  -13.4973   25.1878 O   0  0  0  0  0  0  0  0  0  0  0  0
    3.9122  -13.0056   23.5723 N   0  0  0  0  0  0  0  0  0  0  0  0
    4.4953  -12.5128   22.3568 C   0  0  0  0  0  0  0  0  0  0  0  0
    4.8195  -11.0559   22.4614 C   0  0  0  0  0  0  0  0  0  0  0  0
    5.0844  -10.3309   23.6095 C   0  0  0  0  0  0  0  0  0  0  0  0
    5.4464   -8.7045   23.2353 S   0  0  0  0  0  0  0  0  0  0  0  0
    5.2644   -9.0782   21.5781 C   0  0  0  0  0  0  0  0  0  0  0  0
    4.9101  -10.3098   21.2911 N   0  0  0  0  0  0  0  0  0  0  0  0
  1  2  1  0
  2  3  2  0
  3  4  1  0
  4  5  2  0
  5  6  1  0
  6  7  1  0
  6  8  2  0
  8  9  1  0
  9 10  2  0
  9 11  1  0
 11 12  1  0
 12 13  1  0
 13 14  2  0
 14 15  1  0
 15 16  1  0
 16 17  2  0
  8  2  1  0
 17 13  1  0
M  END
>  <inspiration_score>  (182) 
0.74

>  <HIPPO Pose ID>  (182) 
1012702

>  <ref_pdb>  (182) 
x0502a

>  <ref_mols>  (182) 
x0426a

>  <HIPPO Compound ID>  (182) 
671210

>  <energy_score>  (182) 
-68.790533

>  <tags>  (182) 
CpKRS_FrAncestor_bulkdock_iter1,CpKRS_FrAncestor_bulkdock_iter1_cluster_best5,fragmenstein_placed,CpKRS_FrAncestor_bulkdock_iter1_exported,BulkDock Fragalysis export

>  <inchikey>  (182) 
MBTGVYZTMAQXTF-UHFFFAOYSA-N

>  <placement_batch>  (182) 
CpKRS_FrAncestor_bulkdock_iter1_cluster_best5

>  <alias>  (182) 
MBTGVYZTMAQXTF-UHFFFAOYSA-N-P16

>  <name>  (182) 
MBTGVYZTMAQXTF-UHFFFAOYSA-N-P16

>  <smiles>  (182) 
Cc1cccc(F)c1C(=O)NCc1cscn1

>  <subsites>  (182) 


>  <distance_score>  (182) 
0.403833

$$$$
CREXYFFAVLRCCG-UHFFFAOYSA-N-P16
     RDKit          3D

 17 18  0  0  0  0  0  0  0  0999 V2000
    5.0668  -15.9655   26.4798 C   0  0  0  0  0  0  0  0  0  0  0  0
    3.8327  -15.1343   26.6159 C   0  0  0  0  0  0  0  0  0  0  0  0
    2.9241  -15.4517   27.6320 C   0  0  0  0  0  0  0  0  0  0  0  0
    3.1738  -16.4785   28.4583 F   0  0  0  0  0  0  0  0  0  0  0  0
    1.7567  -14.7206   27.8238 C   0  0  0  0  0  0  0  0  0  0  0  0
    1.4667  -13.6548   26.9798 C   0  0  0  0  0  0  0  0  0  0  0  0
    2.3731  -13.2978   25.9782 C   0  0  0  0  0  0  0  0  0  0  0  0
    3.5651  -14.0235   25.7987 C   0  0  0  0  0  0  0  0  0  0  0  0
    4.5965  -13.5153   24.8321 C   0  0  0  0  0  0  0  0  0  0  0  0
    5.6997  -13.4470   25.1927 O   0  0  0  0  0  0  0  0  0  0  0  0
    3.9545  -13.0776   23.5126 N   0  0  0  0  0  0  0  0  0  0  0  0
    4.5478  -12.5487   22.3164 C   0  0  0  0  0  0  0  0  0  0  0  0
    4.8441  -11.0876   22.4465 C   0  0  0  0  0  0  0  0  0  0  0  0
    5.1308  -10.3802   23.5999 C   0  0  0  0  0  0  0  0  0  0  0  0
    5.4550   -8.7403   23.2467 S   0  0  0  0  0  0  0  0  0  0  0  0
    5.2384   -9.0867   21.5878 C   0  0  0  0  0  0  0  0  0  0  0  0
    4.8889  -10.3171   21.2895 N   0  0  0  0  0  0  0  0  0  0  0  0
  1  2  1  0
  2  3  2  0
  3  4  1  0
  3  5  1  0
  5  6  2  0
  6  7  1  0
  7  8  2  0
  8  9  1  0
  9 10  2  0
  9 11  1  0
 11 12  1  0
 12 13  1  0
 13 14  2  0
 14 15  1  0
 15 16  1  0
 16 17  2  0
  8  2  1  0
 17 13  1  0
M  END
>  <inspiration_score>  (183) 
0.735

>  <HIPPO Pose ID>  (183) 
1012716

>  <ref_pdb>  (183) 
x0502a

>  <ref_mols>  (183) 
x0426a

>  <HIPPO Compound ID>  (183) 
671217

>  <energy_score>  (183) 
-63.840094

>  <tags>  (183) 
CpKRS_FrAncestor_bulkdock_iter1,CpKRS_FrAncestor_bulkdock_iter1_cluster_best5,fragmenstein_placed,CpKRS_FrAncestor_bulkdock_iter1_exported,BulkDock Fragalysis export

>  <inchikey>  (183) 
CREXYFFAVLRCCG-UHFFFAOYSA-N

>  <placement_batch>  (183) 
CpKRS_FrAncestor_bulkdock_iter1_cluster_best5

>  <alias>  (183) 
CREXYFFAVLRCCG-UHFFFAOYSA-N-P16

>  <name>  (183) 
CREXYFFAVLRCCG-UHFFFAOYSA-N-P16

>  <smiles>  (183) 
Cc1c(F)cccc1C(=O)NCc1cscn1

>  <subsites>  (183) 


>  <distance_score>  (183) 
0.430652

$$$$
C672024-P35
     RDKit          3D

 17 18  0  0  0  0  0  0  0  0999 V2000
    5.5517  -13.5936   24.4826 O   0  0  0  0  0  0  0  0  0  0  0  0
    4.4595  -13.2260   24.6273 C   0  0  0  0  0  0  0  0  0  0  0  0
    3.6374  -12.2091   23.8232 N   0  0  0  0  0  0  0  0  0  0  0  0
    3.9526  -11.5037   22.6210 C   0  0  0  0  0  0  0  0  0  0  0  0
    4.6283  -10.2217   22.9273 C   0  0  0  0  0  0  0  0  0  0  0  0
    5.7500  -10.0161   23.7707 C   0  0  0  0  0  0  0  0  0  0  0  0
    6.0616   -8.6819   23.7212 C   0  0  0  0  0  0  0  0  0  0  0  0
    5.2155   -8.0415   22.8798 O   0  0  0  0  0  0  0  0  0  0  0  0
    4.3559   -8.9770   22.4016 C   0  0  0  0  0  0  0  0  0  0  0  0
    3.6189  -13.7401   25.7808 C   0  0  0  0  0  0  0  0  0  0  0  0
    2.3864  -13.1310   25.8808 N   0  0  0  0  0  0  0  0  0  0  0  0
    1.6614  -13.4266   26.9818 C   0  0  0  0  0  0  0  0  0  0  0  0
    2.0734  -14.3102   27.9670 C   0  0  0  0  0  0  0  0  0  0  0  0
    1.1851  -14.4946   29.4208 Cl  0  0  0  0  0  0  0  0  0  0  0  0
    3.2790  -14.9713   27.8079 C   0  0  0  0  0  0  0  0  0  0  0  0
    4.0854  -14.6731   26.7105 C   0  0  0  0  0  0  0  0  0  0  0  0
    5.6420  -15.4006   26.7122 Cl  0  0  0  0  0  0  0  0  0  0  0  0
  1  2  2  0
  2  3  1  0
  3  4  1  0
  4  5  1  0
  5  6  1  0
  6  7  2  0
  7  8  1  0
  8  9  1  0
  2 10  1  0
 10 11  2  0
 11 12  1  0
 12 13  2  0
 13 14  1  0
 13 15  1  0
 15 16  2  0
 16 17  1  0
  9  5  2  0
 16 10  1  0
M  END
>  <inspiration_score>  (184) 
0.858

>  <HIPPO Pose ID>  (184) 
1015763

>  <ref_pdb>  (184) 
x0421a

>  <ref_mols>  (184) 
x0492b

>  <HIPPO Compound ID>  (184) 
672024

>  <energy_score>  (184) 
-89.682552

>  <tags>  (184) 
CpKRS_FrAncestor_bulkdock_iter1,CpKRS_FrAncestor_bulkdock_iter1_cluster_best5,fragmenstein_placed,CpKRS_FrAncestor_bulkdock_iter1_exported,BulkDock Fragalysis export

>  <inchikey>  (184) 
CVWWAPZHLGJVTB-UHFFFAOYSA-N

>  <placement_batch>  (184) 
CpKRS_FrAncestor_bulkdock_iter1_cluster_best5

>  <alias>  (184) 
C672024-P35

>  <name>  (184) 
C672024-P35

>  <smiles>  (184) 
O=C(NCc1ccoc1)c1ncc(Cl)cc1Cl

>  <subsites>  (184) 


>  <distance_score>  (184) 
0.419928

$$$$
C673120-P41
     RDKit          3D

 17 18  0  0  0  0  0  0  0  0999 V2000
    5.1281    3.6793   42.4106 O   0  0  0  0  0  0  0  0  0  0  0  0
    4.5525    4.6924   42.3808 C   0  0  0  0  0  0  0  0  0  0  0  0
    3.6159    5.3366   43.4149 N   0  0  0  0  0  0  0  0  0  0  0  0
    3.2776    4.9359   44.6867 C   0  0  0  0  0  0  0  0  0  0  0  0
    3.7132    3.7279   45.1832 C   0  0  0  0  0  0  0  0  0  0  0  0
    3.3410    3.3918   46.4691 C   0  0  0  0  0  0  0  0  0  0  0  0
    3.7570    2.2223   46.9659 F   0  0  0  0  0  0  0  0  0  0  0  0
    2.5546    4.2316   47.2320 C   0  0  0  0  0  0  0  0  0  0  0  0
    2.1926    5.4307   46.6641 C   0  0  0  0  0  0  0  0  0  0  0  0
    2.5466    5.7949   45.4130 N   0  0  0  0  0  0  0  0  0  0  0  0
    4.7731    5.6085   41.1858 C   0  0  0  0  0  0  0  0  0  0  0  0
    4.4688    6.9106   41.0059 C   0  0  0  0  0  0  0  0  0  0  0  0
    3.6648    7.9373   42.1370 Cl  0  0  0  0  0  0  0  0  0  0  0  0
    4.9117    7.6572   39.7764 C   0  0  0  0  0  0  0  0  0  0  0  0
    6.0930    6.9594   39.1300 C   0  0  0  0  0  0  0  0  0  0  0  0
    5.7490    5.6036   38.9076 O   0  0  0  0  0  0  0  0  0  0  0  0
    5.5713    4.8703   40.1188 C   0  0  0  0  0  0  0  0  0  0  0  0
  1  2  2  0
  2  3  1  0
  3  4  1  0
  4  5  2  0
  5  6  1  0
  6  7  1  0
  6  8  2  0
  8  9  1  0
  9 10  2  0
  2 11  1  0
 11 12  2  0
 12 13  1  0
 12 14  1  0
 14 15  1  0
 15 16  1  0
 16 17  1  0
 10  4  1  0
 17 11  1  0
M  END
>  <inspiration_score>  (185) 
0.779

>  <HIPPO Pose ID>  (185) 
1019930

>  <ref_pdb>  (185) 
x0421a

>  <ref_mols>  (185) 
x0606a

>  <HIPPO Compound ID>  (185) 
673120

>  <energy_score>  (185) 
-54.509228

>  <tags>  (185) 
CpKRS_FrAncestor_bulkdock_iter1,CpKRS_FrAncestor_bulkdock_iter1_cluster_best5,fragmenstein_placed,CpKRS_FrAncestor_bulkdock_iter1_exported,BulkDock Fragalysis export

>  <inchikey>  (185) 
AKHKCHHBGWLIEP-UHFFFAOYSA-N

>  <placement_batch>  (185) 
CpKRS_FrAncestor_bulkdock_iter1_cluster_best5

>  <alias>  (185) 
C673120-P41

>  <name>  (185) 
C673120-P41

>  <smiles>  (185) 
O=C(Nc1cc(F)ccn1)C1=C(Cl)CCOC1

>  <subsites>  (185) 


>  <distance_score>  (185) 
0.336514

$$$$
XPYGCBPRWJOVRN-SNVBAGLBSA-N-P34
     RDKit          3D

 17 18  0  0  0  0  0  0  0  0999 V2000
    6.0339   -7.3781   24.5967 C   0  0  0  0  0  0  0  0  0  0  0  0
    5.5275   -8.4088   23.6365 C   0  0  0  0  0  0  0  0  0  0  0  0
    5.1524   -8.0540   22.3462 C   0  0  0  0  0  0  0  0  0  0  0  0
    4.7176   -9.0138   21.4466 C   0  0  0  0  0  0  0  0  0  0  0  0
    4.6924  -10.3444   21.8031 C   0  0  0  0  0  0  0  0  0  0  0  0
    5.0798  -10.7317   23.0726 C   0  0  0  0  0  0  0  0  0  0  0  0
    5.1774  -12.1913   23.2949 C   0  0  0  0  0  0  0  0  0  0  0  0
    5.6728  -12.8069   22.4421 O   0  0  0  0  0  0  0  0  0  0  0  0
    4.5530  -12.6476   24.6119 N   0  0  0  0  0  0  0  0  0  0  0  0
    4.4859  -13.9510   25.2107 C   0  0  1  0  0  0  0  0  0  0  0  0
    5.8214  -14.4534   25.7218 C   0  0  0  0  0  0  0  0  0  0  0  0
    3.3894  -14.0707   26.2141 C   0  0  0  0  0  0  0  0  0  0  0  0
    3.3067  -15.0721   27.1692 C   0  0  0  0  0  0  0  0  0  0  0  0
    1.9798  -14.8084   28.1947 S   0  0  0  0  0  0  0  0  0  0  0  0
    1.5236  -13.4837   27.2103 C   0  0  0  0  0  0  0  0  0  0  0  0
    2.3219  -13.1756   26.2165 N   0  0  0  0  0  0  0  0  0  0  0  0
    5.4997   -9.7630   23.9810 C   0  0  0  0  0  0  0  0  0  0  0  0
  1  2  1  0
  2  3  2  0
  3  4  1  0
  4  5  2  0
  5  6  1  0
  6  7  1  0
  7  8  2  0
  7  9  1  0
  9 10  1  0
 10 11  1  1
 10 12  1  0
 12 13  2  0
 13 14  1  0
 14 15  1  0
 15 16  2  0
  6 17  2  0
 17  2  1  0
 16 12  1  0
M  END
>  <inspiration_score>  (186) 
0.691

>  <HIPPO Pose ID>  (186) 
1030309

>  <ref_pdb>  (186) 
x0421d

>  <ref_mols>  (186) 
x0492a

>  <HIPPO Compound ID>  (186) 
328240

>  <energy_score>  (186) 
-46.003298

>  <tags>  (186) 
CpKRS_FrAncestor_bulkdock_iter1,CpKRS_FrAncestor_bulkdock_iter1_cluster_best5,fragmenstein_placed,CpKRS_FrAncestor_bulkdock_iter1_exported,BulkDock Fragalysis export

>  <inchikey>  (186) 
XPYGCBPRWJOVRN-UHFFFAOYSA-N

>  <placement_batch>  (186) 
CpKRS_FrAncestor_bulkdock_iter1_cluster_best5

>  <alias>  (186) 
XPYGCBPRWJOVRN-SNVBAGLBSA-N-P34

>  <name>  (186) 
XPYGCBPRWJOVRN-SNVBAGLBSA-N-P34

>  <smiles>  (186) 
Cc1cccc(C(=O)N[C@H](C)c2cscn2)c1

>  <subsites>  (186) 


>  <distance_score>  (186) 
0.984513

$$$$
CYBGEQOATNFVDY-UHFFFAOYSA-N-P15
     RDKit          3D

 17 18  0  0  0  0  0  0  0  0999 V2000
    1.9345  -26.4925   13.6347 O   0  0  0  0  0  0  0  0  0  0  0  0
    1.6474  -25.4182   13.9851 C   0  0  0  0  0  0  0  0  0  0  0  0
    1.3961  -24.8644   15.3969 N   0  0  0  0  0  0  0  0  0  0  0  0
    1.3514  -25.5328   16.6671 C   0  0  0  0  0  0  0  0  0  0  0  0
    2.5581  -25.2538   17.4716 C   0  0  0  0  0  0  0  0  0  0  0  0
    3.5699  -24.3445   17.2610 C   0  0  0  0  0  0  0  0  0  0  0  0
    4.4470  -24.3681   18.2924 O   0  0  0  0  0  0  0  0  0  0  0  0
    4.0554  -25.3337   19.2053 N   0  0  0  0  0  0  0  0  0  0  0  0
    2.9199  -25.8313   18.7105 C   0  0  0  0  0  0  0  0  0  0  0  0
    1.9141  -27.1409   19.6105 Br  0  0  0  0  0  0  0  0  0  0  0  0
    1.4292  -24.3950   12.9023 C   0  0  0  0  0  0  0  0  0  0  0  0
    1.9149  -24.6887   11.6173 C   0  0  0  0  0  0  0  0  0  0  0  0
    1.6575  -23.8371   10.5418 C   0  0  0  0  0  0  0  0  0  0  0  0
    0.9589  -22.6484   10.7391 C   0  0  0  0  0  0  0  0  0  0  0  0
    0.4798  -22.3392   12.0078 C   0  0  0  0  0  0  0  0  0  0  0  0
    0.6947  -23.2198   13.0703 C   0  0  0  0  0  0  0  0  0  0  0  0
    0.1434  -22.9109   14.2533 F   0  0  0  0  0  0  0  0  0  0  0  0
  1  2  2  0
  2  3  1  0
  3  4  1  0
  4  5  1  0
  5  6  2  0
  6  7  1  0
  7  8  1  0
  8  9  2  0
  9 10  1  0
  2 11  1  0
 11 12  2  0
 12 13  1  0
 13 14  2  0
 14 15  1  0
 15 16  2  0
 16 17  1  0
  9  5  1  0
 16 11  1  0
M  END
>  <inspiration_score>  (187) 
0.537

>  <HIPPO Pose ID>  (187) 
1033048

>  <ref_pdb>  (187) 
x0421d

>  <ref_mols>  (187) 
x0426b

>  <HIPPO Compound ID>  (187) 
676997

>  <energy_score>  (187) 
-75.923842

>  <tags>  (187) 
CpKRS_FrAncestor_bulkdock_iter1,CpKRS_FrAncestor_bulkdock_iter1_cluster_best5,fragmenstein_placed,CpKRS_FrAncestor_bulkdock_iter1_exported,BulkDock Fragalysis export

>  <inchikey>  (187) 
CYBGEQOATNFVDY-UHFFFAOYSA-N

>  <placement_batch>  (187) 
CpKRS_FrAncestor_bulkdock_iter1_cluster_best5

>  <alias>  (187) 
CYBGEQOATNFVDY-UHFFFAOYSA-N-P15

>  <name>  (187) 
CYBGEQOATNFVDY-UHFFFAOYSA-N-P15

>  <smiles>  (187) 
O=C(NCc1conc1Br)c1ccccc1F

>  <subsites>  (187) 


>  <distance_score>  (187) 
0.870902

$$$$
C680286-P42
     RDKit          3D

 17 18  0  0  0  0  0  0  0  0999 V2000
    6.3681    4.0585   40.6155 C   0  0  0  0  0  0  0  0  0  0  0  0
    5.5906    5.3244   40.4149 C   0  0  0  0  0  0  0  0  0  0  0  0
    4.5200    5.6876   41.1578 C   0  0  0  0  0  0  0  0  0  0  0  0
    3.9489    4.7248   42.1914 C   0  0  0  0  0  0  0  0  0  0  0  0
    3.8997    3.5756   42.0041 O   0  0  0  0  0  0  0  0  0  0  0  0
    3.5971    5.5502   43.4499 N   0  0  0  0  0  0  0  0  0  0  0  0
    3.2158    5.1383   44.7233 C   0  0  0  0  0  0  0  0  0  0  0  0
    3.3667    3.7983   45.0864 C   0  0  0  0  0  0  0  0  0  0  0  0
    2.9505    3.3564   46.3389 C   0  0  0  0  0  0  0  0  0  0  0  0
    2.2726    4.2176   47.1819 C   0  0  0  0  0  0  0  0  0  0  0  0
    2.1245    5.5493   46.8195 C   0  0  0  0  0  0  0  0  0  0  0  0
    2.6825    6.0480   45.6380 C   0  0  0  0  0  0  0  0  0  0  0  0
    2.7458    7.5343   45.4647 C   0  0  0  0  0  0  0  0  0  0  0  0
    3.7769    7.2625   41.0563 S   0  0  0  0  0  0  0  0  0  0  0  0
    4.9677    8.0963   39.9736 C   0  0  0  0  0  0  0  0  0  0  0  0
    5.3825    7.1394   38.8779 C   0  0  0  0  0  0  0  0  0  0  0  0
    6.1690    6.0823   39.4122 O   0  0  0  0  0  0  0  0  0  0  0  0
  1  2  1  0
  2  3  2  0
  3  4  1  0
  4  5  2  0
  4  6  1  0
  6  7  1  0
  7  8  2  0
  8  9  1  0
  9 10  2  0
 10 11  1  0
 11 12  2  0
 12 13  1  0
  3 14  1  0
 14 15  1  0
 15 16  1  0
 16 17  1  0
 17  2  1  0
 12  7  1  0
M  END
>  <inspiration_score>  (188) 
0.732

>  <HIPPO Pose ID>  (188) 
1034433

>  <ref_pdb>  (188) 
x0419a

>  <ref_mols>  (188) 
x0606b

>  <HIPPO Compound ID>  (188) 
680286

>  <energy_score>  (188) 
-58.215779

>  <tags>  (188) 
CpKRS_FrAncestor_bulkdock_iter1,CpKRS_FrAncestor_bulkdock_iter1_cluster_best5,fragmenstein_placed,CpKRS_FrAncestor_bulkdock_iter1_exported,BulkDock Fragalysis export

>  <inchikey>  (188) 
STWQTDHSLQGNMB-UHFFFAOYSA-N

>  <placement_batch>  (188) 
CpKRS_FrAncestor_bulkdock_iter1_cluster_best5

>  <alias>  (188) 
C680286-P42

>  <name>  (188) 
C680286-P42

>  <smiles>  (188) 
CC1=C(C(=O)Nc2ccccc2C)SCCO1

>  <subsites>  (188) 


>  <distance_score>  (188) 
0.561292

$$$$
INLIVLUMHBEFNP-UHFFFAOYSA-N-P55
     RDKit          3D

 16 17  0  0  0  0  0  0  0  0999 V2000
    0.4074  -14.2694   27.5108 C   0  0  0  0  0  0  0  0  0  0  0  0
    1.7906  -14.4502   27.0480 C   0  0  0  0  0  0  0  0  0  0  0  0
    2.7234  -15.2440   27.5272 N   0  0  0  0  0  0  0  0  0  0  0  0
    3.8032  -14.9945   26.7130 C   0  0  0  0  0  0  0  0  0  0  0  0
    5.0747  -15.7031   26.9190 C   0  0  0  0  0  0  0  0  0  0  0  0
    3.4734  -14.0516   25.7606 C   0  0  0  0  0  0  0  0  0  0  0  0
    4.2328  -13.4738   24.6902 C   0  0  0  0  0  0  0  0  0  0  0  0
    5.4263  -13.6690   24.4832 O   0  0  0  0  0  0  0  0  0  0  0  0
    3.4309  -12.7052   23.9011 O   0  0  0  0  0  0  0  0  0  0  0  0
    4.0601  -12.1973   22.7213 C   0  0  0  0  0  0  0  0  0  0  0  0
    4.5291  -10.7933   22.9724 C   0  0  0  0  0  0  0  0  0  0  0  0
    4.4670  -10.1385   24.1168 N   0  0  0  0  0  0  0  0  0  0  0  0
    5.0392   -8.8896   23.9799 C   0  0  0  0  0  0  0  0  0  0  0  0
    5.4690   -8.5728   22.7124 C   0  0  0  0  0  0  0  0  0  0  0  0
    5.2057   -9.8961   21.6651 S   0  0  0  0  0  0  0  0  0  0  0  0
    2.1676  -13.6921   25.9793 O   0  0  0  0  0  0  0  0  0  0  0  0
  1  2  1  0
  2  3  2  0
  3  4  1  0
  4  5  1  0
  4  6  2  0
  6  7  1  0
  7  8  2  0
  7  9  1  0
  9 10  1  0
 10 11  1  0
 11 12  2  0
 12 13  1  0
 13 14  2  0
 14 15  1  0
  6 16  1  0
 16  2  1  0
 15 11  1  0
M  END
>  <inspiration_score>  (189) 
0.708

>  <HIPPO Pose ID>  (189) 
1051544

>  <ref_pdb>  (189) 
x0504c

>  <ref_mols>  (189) 
x0646a

>  <HIPPO Compound ID>  (189) 
169581

>  <energy_score>  (189) 
-89.692008

>  <tags>  (189) 
CpKRS_FrAncestor_bulkdock_iter1,CpKRS_FrAncestor_bulkdock_iter1_cluster_best5,fragmenstein_placed,CpKRS_FrAncestor_bulkdock_iter1_exported,BulkDock Fragalysis export

>  <inchikey>  (189) 
INLIVLUMHBEFNP-UHFFFAOYSA-N

>  <placement_batch>  (189) 
CpKRS_FrAncestor_bulkdock_iter1_cluster_best5

>  <alias>  (189) 
INLIVLUMHBEFNP-UHFFFAOYSA-N-P55

>  <name>  (189) 
INLIVLUMHBEFNP-UHFFFAOYSA-N-P55

>  <smiles>  (189) 
Cc1nc(C)c(C(=O)OCc2nccs2)o1

>  <subsites>  (189) 


>  <distance_score>  (189) 
0.375854

$$$$
PDWYEWUUWPIFDS-UHFFFAOYSA-N-P29
     RDKit          3D

 23 24  0  0  0  0  0  0  0  0999 V2000
    3.0470   12.1651   38.5505 C   0  0  0  0  0  0  0  0  0  0  0  0
    3.7197   12.0229   39.8056 O   0  0  0  0  0  0  0  0  0  0  0  0
    3.5464   10.7528   40.2907 C   0  0  0  0  0  0  0  0  0  0  0  0
    2.4567   10.5177   41.1345 C   0  0  0  0  0  0  0  0  0  0  0  0
    2.2008    9.2379   41.6533 C   0  0  0  0  0  0  0  0  0  0  0  0
    1.0854    8.9425   42.3865 O   0  0  0  0  0  0  0  0  0  0  0  0
    0.0760    9.9592   42.3890 C   0  0  0  0  0  0  0  0  0  0  0  0
    3.1168    8.2203   41.3728 C   0  0  0  0  0  0  0  0  0  0  0  0
    3.0551    6.8070   41.8110 C   0  0  0  0  0  0  0  0  0  0  0  0
    3.1667    5.9988   40.9758 O   0  0  0  0  0  0  0  0  0  0  0  0
    2.9515    6.6547   43.3407 N   0  0  0  0  0  0  0  0  0  0  0  0
    3.0549    5.5254   44.1449 C   0  0  0  0  0  0  0  0  0  0  0  0
    3.6679    4.3761   43.6235 C   0  0  0  0  0  0  0  0  0  0  0  0
    3.9482    3.2892   44.4491 C   0  0  0  0  0  0  0  0  0  0  0  0
    3.5360    3.3227   45.7721 C   0  0  0  0  0  0  0  0  0  0  0  0
    3.8247    2.2782   46.5615 F   0  0  0  0  0  0  0  0  0  0  0  0
    2.8141    4.4049   46.2579 C   0  0  0  0  0  0  0  0  0  0  0  0
    2.0615    4.3045   47.7788 Cl  0  0  0  0  0  0  0  0  0  0  0  0
    2.6315    5.5331   45.4695 C   0  0  0  0  0  0  0  0  0  0  0  0
    2.0018    6.6063   45.9733 F   0  0  0  0  0  0  0  0  0  0  0  0
    4.2392    8.4771   40.5695 C   0  0  0  0  0  0  0  0  0  0  0  0
    4.4450    9.7291   40.0145 C   0  0  0  0  0  0  0  0  0  0  0  0
    5.9358    9.9089   38.8704 Br  0  0  0  0  0  0  0  0  0  0  0  0
  1  2  1  0
  2  3  1  0
  3  4  2  0
  4  5  1  0
  5  6  1  0
  6  7  1  0
  5  8  2  0
  8  9  1  0
  9 10  2  0
  9 11  1  0
 11 12  1  0
 12 13  2  0
 13 14  1  0
 14 15  2  0
 15 16  1  0
 15 17  1  0
 17 18  1  0
 17 19  2  0
 19 20  1  0
  8 21  1  0
 21 22  2  0
 22 23  1  0
 22  3  1  0
 19 12  1  0
M  END
>  <inspiration_score>  (190) 
0.609

>  <HIPPO Pose ID>  (190) 
1060736

>  <ref_pdb>  (190) 
x0485c

>  <ref_mols>  (190) 
x0485c

>  <HIPPO Compound ID>  (190) 
172850

>  <energy_score>  (190) 
-277.526865

>  <tags>  (190) 
CpKRS_FrAncestor_bulkdock_iter1,CpKRS_FrAncestor_bulkdock_iter1_cluster_best5,fragmenstein_placed,CpKRS_FrAncestor_bulkdock_iter1_exported,BulkDock Fragalysis export

>  <inchikey>  (190) 
PDWYEWUUWPIFDS-UHFFFAOYSA-N

>  <placement_batch>  (190) 
CpKRS_FrAncestor_bulkdock_iter1_cluster_best5

>  <alias>  (190) 
PDWYEWUUWPIFDS-UHFFFAOYSA-N-P29

>  <name>  (190) 
PDWYEWUUWPIFDS-UHFFFAOYSA-N-P29

>  <smiles>  (190) 
COc1cc(OC)c(C(=O)Nc2ccc(F)c(Cl)c2F)cc1Br

>  <subsites>  (190) 


>  <distance_score>  (190) 
0.816655

$$$$
PDVJPUYCTZIDBY-UHFFFAOYSA-N-P55
     RDKit          3D

 14 15  0  0  0  0  0  0  0  0999 V2000
    5.4026  -13.7774   24.5832 O   0  0  0  0  0  0  0  0  0  0  0  0
    4.2207  -13.5521   24.8275 C   0  0  0  0  0  0  0  0  0  0  0  0
    3.4253  -12.7411   24.0739 O   0  0  0  0  0  0  0  0  0  0  0  0
    4.0195  -12.2714   22.8587 C   0  0  0  0  0  0  0  0  0  0  0  0
    4.5290  -10.8717   23.0525 C   0  0  0  0  0  0  0  0  0  0  0  0
    4.5417  -10.1895   24.1817 N   0  0  0  0  0  0  0  0  0  0  0  0
    5.1028   -8.9442   23.9801 C   0  0  0  0  0  0  0  0  0  0  0  0
    5.4740   -8.6659   22.6852 C   0  0  0  0  0  0  0  0  0  0  0  0
    5.1556  -10.0179   21.6905 S   0  0  0  0  0  0  0  0  0  0  0  0
    3.5104  -14.1737   25.9331 C   0  0  0  0  0  0  0  0  0  0  0  0
    4.0484  -15.1855   26.7146 C   0  0  0  0  0  0  0  0  0  0  0  0
    2.8610  -15.6414   27.8567 S   0  0  0  0  0  0  0  0  0  0  0  0
    1.7623  -14.5051   27.3123 N   0  0  0  0  0  0  0  0  0  0  0  0
    2.2140  -13.8010   26.2875 N   0  0  0  0  0  0  0  0  0  0  0  0
  1  2  2  0
  2  3  1  0
  3  4  1  0
  4  5  1  0
  5  6  2  0
  6  7  1  0
  7  8  2  0
  8  9  1  0
  2 10  1  0
 10 11  2  0
 11 12  1  0
 12 13  1  0
 13 14  2  0
  9  5  1  0
 14 10  1  0
M  END
>  <inspiration_score>  (191) 
0.792

>  <HIPPO Pose ID>  (191) 
1063668

>  <ref_pdb>  (191) 
x0485c

>  <ref_mols>  (191) 
x0646a

>  <HIPPO Compound ID>  (191) 
173904

>  <energy_score>  (191) 
-88.582388

>  <tags>  (191) 
CpKRS_FrAncestor_bulkdock_iter1,CpKRS_FrAncestor_bulkdock_iter1_cluster_best5,fragmenstein_placed,CpKRS_FrAncestor_bulkdock_iter1_exported,BulkDock Fragalysis export

>  <inchikey>  (191) 
PDVJPUYCTZIDBY-UHFFFAOYSA-N

>  <placement_batch>  (191) 
CpKRS_FrAncestor_bulkdock_iter1_cluster_best5

>  <alias>  (191) 
PDVJPUYCTZIDBY-UHFFFAOYSA-N-P55

>  <name>  (191) 
PDVJPUYCTZIDBY-UHFFFAOYSA-N-P55

>  <smiles>  (191) 
O=C(OCc1nccs1)c1csnn1

>  <subsites>  (191) 


>  <distance_score>  (191) 
0.276323

$$$$
XINNQQPGVXPVRU-UHFFFAOYSA-N-P57
     RDKit          3D

 22 23  0  0  0  0  0  0  0  0999 V2000
   -0.3261  -16.0715   31.4837 C   0  0  0  0  0  0  0  0  0  0  0  0
    0.2434  -15.6459   30.1386 C   0  0  0  0  0  0  0  0  0  0  0  0
    1.5899  -15.9917   29.8668 O   0  0  0  0  0  0  0  0  0  0  0  0
    2.1190  -15.6416   28.6539 C   0  0  0  0  0  0  0  0  0  0  0  0
    1.4422  -15.0374   27.6002 C   0  0  0  0  0  0  0  0  0  0  0  0
    2.0820  -14.8379   26.3716 C   0  0  0  0  0  0  0  0  0  0  0  0
    3.4219  -15.2025   26.1876 C   0  0  0  0  0  0  0  0  0  0  0  0
    4.0928  -15.0760   24.8407 C   0  0  0  0  0  0  0  0  0  0  0  0
    4.1278  -13.7092   24.4160 O   0  0  0  0  0  0  0  0  0  0  0  0
    3.1497  -13.3403   23.5508 C   0  0  0  0  0  0  0  0  0  0  0  0
    2.2850  -14.0756   23.0903 O   0  0  0  0  0  0  0  0  0  0  0  0
    3.1985  -11.8581   23.2678 C   0  0  0  0  0  0  0  0  0  0  0  0
    4.5218  -11.4222   22.6294 C   0  0  0  0  0  0  0  0  0  0  0  0
    5.3809  -10.6150   23.5974 C   0  0  0  0  0  0  0  0  0  0  0  0
    4.7000   -9.4693   24.1891 N   0  0  0  0  0  0  0  0  0  0  0  0
    5.0996   -8.1456   23.7257 C   0  0  0  0  0  0  0  0  0  0  0  0
    5.1736   -8.0054   22.2072 C   0  0  0  0  0  0  0  0  0  0  0  0
    6.3917   -7.7294   24.4070 C   0  0  0  0  0  0  0  0  0  0  0  0
    3.2596   -9.6108   24.3599 C   0  0  0  0  0  0  0  0  0  0  0  0
    2.8480  -11.0637   24.5279 C   0  0  0  0  0  0  0  0  0  0  0  0
    4.1130  -15.7467   27.2719 C   0  0  0  0  0  0  0  0  0  0  0  0
    3.4631  -15.9737   28.4876 C   0  0  0  0  0  0  0  0  0  0  0  0
  1  2  1  0
  2  3  1  0
  3  4  1  0
  4  5  2  0
  5  6  1  0
  6  7  2  0
  7  8  1  0
  8  9  1  0
  9 10  1  0
 10 11  2  0
 10 12  1  0
 12 13  1  0
 13 14  1  0
 14 15  1  0
 15 16  1  0
 16 17  1  0
 16 18  1  0
 15 19  1  0
 19 20  1  0
  7 21  1  0
 21 22  2  0
 22  4  1  0
 20 12  1  0
M  END
>  <inspiration_score>  (192) 
0.517

>  <HIPPO Pose ID>  (192) 
1067135

>  <ref_pdb>  (192) 
x0485c

>  <ref_mols>  (192) 
x0654b

>  <HIPPO Compound ID>  (192) 
175162

>  <energy_score>  (192) 
-45.140677

>  <tags>  (192) 
CpKRS_FrAncestor_bulkdock_iter1,CpKRS_FrAncestor_bulkdock_iter1_cluster_best5,fragmenstein_placed,CpKRS_FrAncestor_bulkdock_iter1_exported,BulkDock Fragalysis export

>  <inchikey>  (192) 
XINNQQPGVXPVRU-UHFFFAOYSA-N

>  <placement_batch>  (192) 
CpKRS_FrAncestor_bulkdock_iter1_cluster_best5

>  <alias>  (192) 
XINNQQPGVXPVRU-UHFFFAOYSA-N-P57

>  <name>  (192) 
XINNQQPGVXPVRU-UHFFFAOYSA-N-P57

>  <smiles>  (192) 
CCOc1ccc(COC(=O)C2CCN(C(C)C)CC2)cc1

>  <subsites>  (192) 


>  <distance_score>  (192) 
0.896188

$$$$
JIYKSWAZMLQVJZ-UHFFFAOYSA-N-P30
     RDKit          3D

 21 22  0  0  0  0  0  0  0  0999 V2000
    0.9605  -14.6099   29.9390 C   0  0  0  0  0  0  0  0  0  0  0  0
    1.3534  -15.3544   28.8020 O   0  0  0  0  0  0  0  0  0  0  0  0
    2.0372  -14.6416   27.8603 C   0  0  0  0  0  0  0  0  0  0  0  0
    1.4259  -13.6803   27.0671 C   0  0  0  0  0  0  0  0  0  0  0  0
    2.1587  -13.0509   26.0576 C   0  0  0  0  0  0  0  0  0  0  0  0
    1.5224  -12.0436   25.3787 O   0  0  0  0  0  0  0  0  0  0  0  0
    1.1437  -12.4614   24.0640 C   0  0  0  0  0  0  0  0  0  0  0  0
    3.4994  -13.3983   25.8340 C   0  0  0  0  0  0  0  0  0  0  0  0
    4.3506  -12.7466   24.8091 C   0  0  0  0  0  0  0  0  0  0  0  0
    5.0094  -13.4128   24.1220 O   0  0  0  0  0  0  0  0  0  0  0  0
    4.1772  -11.2232   24.8468 N   0  0  0  0  0  0  0  0  0  0  0  0
    4.6842  -10.2429   24.0194 C   0  0  0  0  0  0  0  0  0  0  0  0
    5.0445  -10.5347   22.7035 C   0  0  0  0  0  0  0  0  0  0  0  0
    5.4406   -9.5914   21.8188 N   0  0  0  0  0  0  0  0  0  0  0  0
    5.5827   -8.3435   22.3099 C   0  0  0  0  0  0  0  0  0  0  0  0
    5.3371   -7.9984   23.6269 C   0  0  0  0  0  0  0  0  0  0  0  0
    5.5625   -6.7524   24.0566 F   0  0  0  0  0  0  0  0  0  0  0  0
    4.8163   -8.9447   24.4881 C   0  0  0  0  0  0  0  0  0  0  0  0
    4.0932  -14.4004   26.5983 C   0  0  0  0  0  0  0  0  0  0  0  0
    3.3590  -14.9940   27.6142 C   0  0  0  0  0  0  0  0  0  0  0  0
    4.1886  -16.2198   28.7470 Br  0  0  0  0  0  0  0  0  0  0  0  0
  1  2  1  0
  2  3  1  0
  3  4  2  0
  4  5  1  0
  5  6  1  0
  6  7  1  0
  5  8  2  0
  8  9  1  0
  9 10  2  0
  9 11  1  0
 11 12  1  0
 12 13  2  0
 13 14  1  0
 14 15  2  0
 15 16  1  0
 16 17  1  0
 16 18  2  0
  8 19  1  0
 19 20  2  0
 20 21  1  0
 20  3  1  0
 18 12  1  0
M  END
>  <inspiration_score>  (193) 
0.809

>  <HIPPO Pose ID>  (193) 
1069372

>  <ref_pdb>  (193) 
x0485c

>  <ref_mols>  (193) 
x0485a

>  <HIPPO Compound ID>  (193) 
176004

>  <energy_score>  (193) 
-273.79732

>  <tags>  (193) 
CpKRS_FrAncestor_bulkdock_iter1,CpKRS_FrAncestor_bulkdock_iter1_cluster_best5,fragmenstein_placed,CpKRS_FrAncestor_bulkdock_iter1_exported,BulkDock Fragalysis export

>  <inchikey>  (193) 
JIYKSWAZMLQVJZ-UHFFFAOYSA-N

>  <placement_batch>  (193) 
CpKRS_FrAncestor_bulkdock_iter1_cluster_best5

>  <alias>  (193) 
JIYKSWAZMLQVJZ-UHFFFAOYSA-N-P30

>  <name>  (193) 
JIYKSWAZMLQVJZ-UHFFFAOYSA-N-P30

>  <smiles>  (193) 
COc1cc(OC)c(C(=O)Nc2cncc(F)c2)cc1Br

>  <subsites>  (193) 


>  <distance_score>  (193) 
0.474112

$$$$
PLGFUQRBQFKDJR-UHFFFAOYSA-N-P4
     RDKit          3D

 13 14  0  0  0  0  0  0  0  0999 V2000
    5.0804  -13.0607   23.8503 O   0  0  0  0  0  0  0  0  0  0  0  0
    4.2275  -12.2869   24.0256 C   0  0  0  0  0  0  0  0  0  0  0  0
    2.9697  -12.3723   24.9040 N   0  0  0  0  0  0  0  0  0  0  0  0
    2.5663  -13.3302   25.7732 C   0  0  0  0  0  0  0  0  0  0  0  0
    1.4249  -13.3116   26.4253 N   0  0  0  0  0  0  0  0  0  0  0  0
    1.2619  -14.4493   27.1988 N   0  0  0  0  0  0  0  0  0  0  0  0
    2.2942  -15.2621   27.0841 C   0  0  0  0  0  0  0  0  0  0  0  0
    3.5708  -14.6614   26.1130 S   0  0  0  0  0  0  0  0  0  0  0  0
    4.2552  -11.0077   23.3077 C   0  0  0  0  0  0  0  0  0  0  0  0
    5.1200  -10.7430   22.2577 C   0  0  0  0  0  0  0  0  0  0  0  0
    4.8823   -9.1207   21.7823 S   0  0  0  0  0  0  0  0  0  0  0  0
    3.6493   -8.8788   22.8893 N   0  0  0  0  0  0  0  0  0  0  0  0
    3.4159   -9.9443   23.6394 N   0  0  0  0  0  0  0  0  0  0  0  0
  1  2  2  0
  2  3  1  0
  3  4  1  0
  4  5  2  0
  5  6  1  0
  6  7  2  0
  7  8  1  0
  2  9  1  0
  9 10  2  0
 10 11  1  0
 11 12  1  0
 12 13  2  0
  8  4  1  0
 13  9  1  0
M  END
>  <inspiration_score>  (194) 
0.784

>  <HIPPO Pose ID>  (194) 
1071375

>  <ref_pdb>  (194) 
x0485c

>  <ref_mols>  (194) 
x0407a

>  <HIPPO Compound ID>  (194) 
176713

>  <energy_score>  (194) 
-120.798437

>  <tags>  (194) 
CpKRS_FrAncestor_bulkdock_iter1,CpKRS_FrAncestor_bulkdock_iter1_cluster_best5,fragmenstein_placed,CpKRS_FrAncestor_bulkdock_iter1_exported,BulkDock Fragalysis export

>  <inchikey>  (194) 
PLGFUQRBQFKDJR-UHFFFAOYSA-N

>  <placement_batch>  (194) 
CpKRS_FrAncestor_bulkdock_iter1_cluster_best5

>  <alias>  (194) 
PLGFUQRBQFKDJR-UHFFFAOYSA-N-P4

>  <name>  (194) 
PLGFUQRBQFKDJR-UHFFFAOYSA-N-P4

>  <smiles>  (194) 
O=C(Nc1nncs1)c1csnn1

>  <subsites>  (194) 


>  <distance_score>  (194) 
0.491434

$$$$
ZNVHKRSPFBGTKC-UHFFFAOYSA-N-P28
     RDKit          3D

 21 22  0  0  0  0  0  0  0  0999 V2000
    5.1076   10.5115   38.5529 C   0  0  0  0  0  0  0  0  0  0  0  0
    5.1405   10.4494   39.9840 O   0  0  0  0  0  0  0  0  0  0  0  0
    3.9536    9.9607   40.4558 C   0  0  0  0  0  0  0  0  0  0  0  0
    2.8466   10.8183   40.4894 C   0  0  0  0  0  0  0  0  0  0  0  0
    1.6201   10.3796   40.9939 C   0  0  0  0  0  0  0  0  0  0  0  0
    1.4830    9.0687   41.4376 C   0  0  0  0  0  0  0  0  0  0  0  0
    2.5958    8.2297   41.4026 C   0  0  0  0  0  0  0  0  0  0  0  0
    2.4609    6.8230   41.7983 C   0  0  0  0  0  0  0  0  0  0  0  0
    2.2889    6.0024   40.9865 O   0  0  0  0  0  0  0  0  0  0  0  0
    2.6846    6.6945   43.3163 N   0  0  0  0  0  0  0  0  0  0  0  0
    2.8325    5.5759   44.1082 C   0  0  0  0  0  0  0  0  0  0  0  0
    3.4466    4.4713   43.5096 C   0  0  0  0  0  0  0  0  0  0  0  0
    3.8451    3.4014   44.2826 C   0  0  0  0  0  0  0  0  0  0  0  0
    3.5814    3.4291   45.6423 C   0  0  0  0  0  0  0  0  0  0  0  0
    4.1807    1.9895   46.6528 Br  0  0  0  0  0  0  0  0  0  0  0  0
    2.9001    4.4845   46.2430 C   0  0  0  0  0  0  0  0  0  0  0  0
    2.5199    5.5876   45.4732 C   0  0  0  0  0  0  0  0  0  0  0  0
    1.7616    6.7015   46.1338 C   0  0  0  0  0  0  0  0  0  0  0  0
    3.8523    8.6658   40.9607 C   0  0  0  0  0  0  0  0  0  0  0  0
    4.9172    7.8313   41.1758 O   0  0  0  0  0  0  0  0  0  0  0  0
    5.7038    7.5536   40.0193 C   0  0  0  0  0  0  0  0  0  0  0  0
  1  2  1  0
  2  3  1  0
  3  4  2  0
  4  5  1  0
  5  6  2  0
  6  7  1  0
  7  8  1  0
  8  9  2  0
  8 10  1  0
 10 11  1  0
 11 12  2  0
 12 13  1  0
 13 14  2  0
 14 15  1  0
 14 16  1  0
 16 17  2  0
 17 18  1  0
  7 19  2  0
 19 20  1  0
 20 21  1  0
 19  3  1  0
 17 11  1  0
M  END
>  <inspiration_score>  (195) 
0.628

>  <HIPPO Pose ID>  (195) 
1071756

>  <ref_pdb>  (195) 
x0485c

>  <ref_mols>  (195) 
x0485b

>  <HIPPO Compound ID>  (195) 
176862

>  <energy_score>  (195) 
-271.378021

>  <tags>  (195) 
CpKRS_FrAncestor_bulkdock_iter1,CpKRS_FrAncestor_bulkdock_iter1_cluster_best5,fragmenstein_placed,CpKRS_FrAncestor_bulkdock_iter1_exported,BulkDock Fragalysis export

>  <inchikey>  (195) 
ZNVHKRSPFBGTKC-UHFFFAOYSA-N

>  <placement_batch>  (195) 
CpKRS_FrAncestor_bulkdock_iter1_cluster_best5

>  <alias>  (195) 
ZNVHKRSPFBGTKC-UHFFFAOYSA-N-P28

>  <name>  (195) 
ZNVHKRSPFBGTKC-UHFFFAOYSA-N-P28

>  <smiles>  (195) 
COc1cccc(C(=O)Nc2ccc(Br)cc2C)c1OC

>  <subsites>  (195) 


>  <distance_score>  (195) 
0.8005

$$$$
ITVLHFHRVRJJGH-UHFFFAOYSA-N-P4
     RDKit          3D

 14 15  0  0  0  0  0  0  0  0999 V2000
    2.1574   -9.4232   24.5664 C   0  0  0  0  0  0  0  0  0  0  0  0
    3.2196   -9.6842   23.5563 C   0  0  0  0  0  0  0  0  0  0  0  0
    3.4559   -8.6615   22.6363 N   0  0  0  0  0  0  0  0  0  0  0  0
    4.4609   -9.0001   21.8577 C   0  0  0  0  0  0  0  0  0  0  0  0
    5.1178  -10.5515   22.1021 S   0  0  0  0  0  0  0  0  0  0  0  0
    4.0326  -10.8054   23.4171 C   0  0  0  0  0  0  0  0  0  0  0  0
    4.1638  -12.0512   24.1868 C   0  0  0  0  0  0  0  0  0  0  0  0
    5.2200  -12.5250   24.3218 O   0  0  0  0  0  0  0  0  0  0  0  0
    2.7938  -12.4970   24.7284 N   0  0  0  0  0  0  0  0  0  0  0  0
    2.4672  -13.5019   25.5746 C   0  0  0  0  0  0  0  0  0  0  0  0
    1.2544  -13.6923   26.0435 N   0  0  0  0  0  0  0  0  0  0  0  0
    1.1980  -14.7978   26.8729 N   0  0  0  0  0  0  0  0  0  0  0  0
    2.3674  -15.4030   26.9479 C   0  0  0  0  0  0  0  0  0  0  0  0
    3.6416  -14.6001   26.1274 S   0  0  0  0  0  0  0  0  0  0  0  0
  1  2  1  0
  2  3  1  0
  3  4  2  0
  4  5  1  0
  5  6  1  0
  6  7  1  0
  7  8  2  0
  7  9  1  0
  9 10  1  0
 10 11  2  0
 11 12  1  0
 12 13  2  0
 13 14  1  0
  6  2  2  0
 14 10  1  0
M  END
>  <inspiration_score>  (196) 
0.716

>  <HIPPO Pose ID>  (196) 
1072577

>  <ref_pdb>  (196) 
x0485a

>  <ref_mols>  (196) 
x0407a

>  <HIPPO Compound ID>  (196) 
177142

>  <energy_score>  (196) 
-115.76378

>  <tags>  (196) 
CpKRS_FrAncestor_bulkdock_iter1,CpKRS_FrAncestor_bulkdock_iter1_cluster_best5,fragmenstein_placed,CpKRS_FrAncestor_bulkdock_iter1_exported,BulkDock Fragalysis export

>  <inchikey>  (196) 
ITVLHFHRVRJJGH-UHFFFAOYSA-N

>  <placement_batch>  (196) 
CpKRS_FrAncestor_bulkdock_iter1_cluster_best5

>  <alias>  (196) 
ITVLHFHRVRJJGH-UHFFFAOYSA-N-P4

>  <name>  (196) 
ITVLHFHRVRJJGH-UHFFFAOYSA-N-P4

>  <smiles>  (196) 
Cc1ncsc1C(=O)Nc1nncs1

>  <subsites>  (196) 


>  <distance_score>  (196) 
0.64077

$$$$
WOTGPKPXSJJCPO-UHFFFAOYSA-N-P4
     RDKit          3D

 16 17  0  0  0  0  0  0  0  0999 V2000
    2.7699  -16.5711   28.0230 C   0  0  0  0  0  0  0  0  0  0  0  0
    2.4063  -15.4123   27.1863 C   0  0  0  0  0  0  0  0  0  0  0  0
    1.2087  -14.8633   27.1200 N   0  0  0  0  0  0  0  0  0  0  0  0
    1.1792  -13.8223   26.2124 N   0  0  0  0  0  0  0  0  0  0  0  0
    2.3616  -13.6264   25.6787 C   0  0  0  0  0  0  0  0  0  0  0  0
    2.6471  -12.6351   24.8121 N   0  0  0  0  0  0  0  0  0  0  0  0
    3.9857  -12.1987   24.2018 C   0  0  0  0  0  0  0  0  0  0  0  0
    5.0461  -12.6732   24.2892 O   0  0  0  0  0  0  0  0  0  0  0  0
    3.8384  -10.9262   23.4885 C   0  0  0  0  0  0  0  0  0  0  0  0
    5.0098  -10.5756   22.2775 S   0  0  0  0  0  0  0  0  0  0  0  0
    4.4980   -8.9534   22.2859 C   0  0  0  0  0  0  0  0  0  0  0  0
    5.3883   -7.9288   21.7175 C   0  0  0  0  0  0  0  0  0  0  0  0
    3.3569   -8.7066   22.8871 N   0  0  0  0  0  0  0  0  0  0  0  0
    2.9935   -9.8272   23.6326 C   0  0  0  0  0  0  0  0  0  0  0  0
    1.8204   -9.6507   24.5341 C   0  0  0  0  0  0  0  0  0  0  0  0
    3.5950  -14.6587   26.2153 S   0  0  0  0  0  0  0  0  0  0  0  0
  1  2  1  0
  2  3  2  0
  3  4  1  0
  4  5  2  0
  5  6  1  0
  6  7  1  0
  7  8  2  0
  7  9  1  0
  9 10  1  0
 10 11  1  0
 11 12  1  0
 11 13  2  0
 13 14  1  0
 14 15  1  0
  5 16  1  0
 16  2  1  0
 14  9  2  0
M  END
>  <inspiration_score>  (197) 
0.72

>  <HIPPO Pose ID>  (197) 
1076897

>  <ref_pdb>  (197) 
x0485c

>  <ref_mols>  (197) 
x0407a

>  <HIPPO Compound ID>  (197) 
181984

>  <energy_score>  (197) 
-130.043961

>  <tags>  (197) 
CpKRS_FrAncestor_bulkdock_iter1,CpKRS_FrAncestor_bulkdock_iter1_cluster_best5,fragmenstein_placed,CpKRS_FrAncestor_bulkdock_iter1_exported,BulkDock Fragalysis export

>  <inchikey>  (197) 
WOTGPKPXSJJCPO-UHFFFAOYSA-N

>  <placement_batch>  (197) 
CpKRS_FrAncestor_bulkdock_iter1_cluster_best5

>  <alias>  (197) 
WOTGPKPXSJJCPO-UHFFFAOYSA-N-P4

>  <name>  (197) 
WOTGPKPXSJJCPO-UHFFFAOYSA-N-P4

>  <smiles>  (197) 
Cc1nnc(NC(=O)c2sc(C)nc2C)s1

>  <subsites>  (197) 


>  <distance_score>  (197) 
0.736688

$$$$
NBXVARKXYRYUDR-UHFFFAOYSA-N-P28
     RDKit          3D

 20 21  0  0  0  0  0  0  0  0999 V2000
    5.2558    2.1862   43.6268 C   0  0  0  0  0  0  0  0  0  0  0  0
    4.6090    2.2848   44.8903 O   0  0  0  0  0  0  0  0  0  0  0  0
    3.8223    3.3888   45.0734 C   0  0  0  0  0  0  0  0  0  0  0  0
    3.2865    3.5365   46.3430 C   0  0  0  0  0  0  0  0  0  0  0  0
    2.5749    4.6880   46.6169 C   0  0  0  0  0  0  0  0  0  0  0  0
    2.3980    5.6933   45.7341 N   0  0  0  0  0  0  0  0  0  0  0  0
    2.8760    5.5062   44.4950 C   0  0  0  0  0  0  0  0  0  0  0  0
    2.8527    6.5658   43.6119 N   0  0  0  0  0  0  0  0  0  0  0  0
    2.9662    6.5913   42.0743 C   0  0  0  0  0  0  0  0  0  0  0  0
    3.0198    5.7141   41.3039 O   0  0  0  0  0  0  0  0  0  0  0  0
    3.1273    7.9660   41.5355 C   0  0  0  0  0  0  0  0  0  0  0  0
    4.2541    8.1209   40.7089 C   0  0  0  0  0  0  0  0  0  0  0  0
    4.5373    9.3493   40.1282 C   0  0  0  0  0  0  0  0  0  0  0  0
    6.1509    9.5027   38.8374 I   0  0  0  0  0  0  0  0  0  0  0  0
    3.7271   10.4455   40.3937 C   0  0  0  0  0  0  0  0  0  0  0  0
    2.6088   10.2959   41.2201 C   0  0  0  0  0  0  0  0  0  0  0  0
    2.2766    9.0480   41.7718 C   0  0  0  0  0  0  0  0  0  0  0  0
    1.1471    8.8412   42.5127 O   0  0  0  0  0  0  0  0  0  0  0  0
    0.0748    9.7335   42.2138 C   0  0  0  0  0  0  0  0  0  0  0  0
    3.5567    4.3570   44.1142 C   0  0  0  0  0  0  0  0  0  0  0  0
  1  2  1  0
  2  3  1  0
  3  4  2  0
  4  5  1  0
  5  6  2  0
  6  7  1  0
  7  8  1  0
  8  9  1  0
  9 10  2  0
  9 11  1  0
 11 12  2  0
 12 13  1  0
 13 14  1  0
 13 15  2  0
 15 16  1  0
 16 17  2  0
 17 18  1  0
 18 19  1  0
  7 20  2  0
 20  3  1  0
 17 11  1  0
M  END
>  <inspiration_score>  (198) 
0.718

>  <HIPPO Pose ID>  (198) 
1080314

>  <ref_pdb>  (198) 
x0485c

>  <ref_mols>  (198) 
x0485b

>  <HIPPO Compound ID>  (198) 
183170

>  <energy_score>  (198) 
-244.599327

>  <tags>  (198) 
CpKRS_FrAncestor_bulkdock_iter1,CpKRS_FrAncestor_bulkdock_iter1_cluster_best5,fragmenstein_placed,CpKRS_FrAncestor_bulkdock_iter1_exported,BulkDock Fragalysis export

>  <inchikey>  (198) 
NBXVARKXYRYUDR-UHFFFAOYSA-N

>  <placement_batch>  (198) 
CpKRS_FrAncestor_bulkdock_iter1_cluster_best5

>  <alias>  (198) 
NBXVARKXYRYUDR-UHFFFAOYSA-N-P28

>  <name>  (198) 
NBXVARKXYRYUDR-UHFFFAOYSA-N-P28

>  <smiles>  (198) 
COc1ccnc(NC(=O)c2cc(I)ccc2OC)c1

>  <subsites>  (198) 


>  <distance_score>  (198) 
0.492719

$$$$
GOTRGXQBSFFAIH-UHFFFAOYSA-N-P28
     RDKit          3D

 20 21  0  0  0  0  0  0  0  0999 V2000
    5.8216    7.3127   39.9887 C   0  0  0  0  0  0  0  0  0  0  0  0
    5.1912    7.5527   41.2489 O   0  0  0  0  0  0  0  0  0  0  0  0
    4.0949    8.3649   41.1524 C   0  0  0  0  0  0  0  0  0  0  0  0
    4.1961    9.6699   40.6730 C   0  0  0  0  0  0  0  0  0  0  0  0
    3.0846   10.5154   40.7282 C   0  0  0  0  0  0  0  0  0  0  0  0
    1.8833   10.0589   41.2802 C   0  0  0  0  0  0  0  0  0  0  0  0
    0.2423   11.3311   41.3721 I   0  0  0  0  0  0  0  0  0  0  0  0
    1.7681    8.7544   41.7566 C   0  0  0  0  0  0  0  0  0  0  0  0
    2.8780    7.9136   41.6771 C   0  0  0  0  0  0  0  0  0  0  0  0
    2.7700    6.5089   42.1157 C   0  0  0  0  0  0  0  0  0  0  0  0
    2.7025    5.6622   41.3164 O   0  0  0  0  0  0  0  0  0  0  0  0
    2.8697    6.4281   43.6488 N   0  0  0  0  0  0  0  0  0  0  0  0
    2.9976    5.3361   44.4825 C   0  0  0  0  0  0  0  0  0  0  0  0
    3.6783    4.2804   44.0011 N   0  0  0  0  0  0  0  0  0  0  0  0
    3.9683    3.2657   44.8403 C   0  0  0  0  0  0  0  0  0  0  0  0
    4.7868    2.1609   44.2545 C   0  0  0  0  0  0  0  0  0  0  0  0
    3.5401    3.2450   46.1615 C   0  0  0  0  0  0  0  0  0  0  0  0
    2.7867    4.3136   46.6344 C   0  0  0  0  0  0  0  0  0  0  0  0
    2.5290    5.3868   45.7881 C   0  0  0  0  0  0  0  0  0  0  0  0
    1.4513    6.8094   46.3869 Br  0  0  0  0  0  0  0  0  0  0  0  0
  1  2  1  0
  2  3  1  0
  3  4  2  0
  4  5  1  0
  5  6  2  0
  6  7  1  0
  6  8  1  0
  8  9  2  0
  9 10  1  0
 10 11  2  0
 10 12  1  0
 12 13  1  0
 13 14  2  0
 14 15  1  0
 15 16  1  0
 15 17  2  0
 17 18  1  0
 18 19  2  0
 19 20  1  0
  9  3  1  0
 19 13  1  0
M  END
>  <inspiration_score>  (199) 
0.764

>  <HIPPO Pose ID>  (199) 
1080476

>  <ref_pdb>  (199) 
x0485c

>  <ref_mols>  (199) 
x0485b

>  <HIPPO Compound ID>  (199) 
183226

>  <energy_score>  (199) 
-331.527828

>  <tags>  (199) 
CpKRS_FrAncestor_bulkdock_iter1,CpKRS_FrAncestor_bulkdock_iter1_cluster_best5,fragmenstein_placed,CpKRS_FrAncestor_bulkdock_iter1_exported,BulkDock Fragalysis export

>  <inchikey>  (199) 
GOTRGXQBSFFAIH-UHFFFAOYSA-N

>  <placement_batch>  (199) 
CpKRS_FrAncestor_bulkdock_iter1_cluster_best5

>  <alias>  (199) 
GOTRGXQBSFFAIH-UHFFFAOYSA-N-P28

>  <name>  (199) 
GOTRGXQBSFFAIH-UHFFFAOYSA-N-P28

>  <smiles>  (199) 
COc1ccc(I)cc1C(=O)Nc1nc(C)ccc1Br

>  <subsites>  (199) 


>  <distance_score>  (199) 
0.379375

$$$$
C188870-P28
     RDKit          3D

 19 20  0  0  0  0  0  0  0  0999 V2000
   -1.5882    8.8149   40.5572 C   0  0  0  0  0  0  0  0  0  0  0  0
   -0.1761    9.3619   40.6412 C   0  0  0  0  0  0  0  0  0  0  0  0
    0.6725    8.4522   41.3589 O   0  0  0  0  0  0  0  0  0  0  0  0
    2.0000    8.8099   41.2324 C   0  0  0  0  0  0  0  0  0  0  0  0
    2.2744   10.0971   40.8821 N   0  0  0  0  0  0  0  0  0  0  0  0
    3.5574   10.4134   40.6010 C   0  0  0  0  0  0  0  0  0  0  0  0
    4.6028    9.5146   40.6782 C   0  0  0  0  0  0  0  0  0  0  0  0
    4.3181    8.2243   41.1041 C   0  0  0  0  0  0  0  0  0  0  0  0
    2.9964    7.8644   41.4036 C   0  0  0  0  0  0  0  0  0  0  0  0
    2.8111    6.4639   41.8259 C   0  0  0  0  0  0  0  0  0  0  0  0
    2.6705    5.6354   41.0149 O   0  0  0  0  0  0  0  0  0  0  0  0
    2.9441    6.3505   43.3611 N   0  0  0  0  0  0  0  0  0  0  0  0
    3.0245    5.2318   44.1790 C   0  0  0  0  0  0  0  0  0  0  0  0
    3.6955    4.1709   43.6867 N   0  0  0  0  0  0  0  0  0  0  0  0
    4.0156    3.1770   44.5423 C   0  0  0  0  0  0  0  0  0  0  0  0
    3.6730    3.1735   45.8837 C   0  0  0  0  0  0  0  0  0  0  0  0
    2.9272    4.2365   46.3683 C   0  0  0  0  0  0  0  0  0  0  0  0
    2.6065    5.2853   45.5068 C   0  0  0  0  0  0  0  0  0  0  0  0
    1.3999    6.7913   46.2034 I   0  0  0  0  0  0  0  0  0  0  0  0
  1  2  1  0
  2  3  1  0
  3  4  1  0
  4  5  2  0
  5  6  1  0
  6  7  2  0
  7  8  1  0
  8  9  2  0
  9 10  1  0
 10 11  2  0
 10 12  1  0
 12 13  1  0
 13 14  2  0
 14 15  1  0
 15 16  2  0
 16 17  1  0
 17 18  2  0
 18 19  1  0
  9  4  1  0
 18 13  1  0
M  END
>  <inspiration_score>  (200) 
0.709

>  <HIPPO Pose ID>  (200) 
1087151

>  <ref_pdb>  (200) 
x0485a

>  <ref_mols>  (200) 
x0485b

>  <HIPPO Compound ID>  (200) 
188870

>  <energy_score>  (200) 
-263.749216

>  <tags>  (200) 
CpKRS_FrAncestor_bulkdock_iter1,CpKRS_FrAncestor_bulkdock_iter1_cluster_best5,fragmenstein_placed,CpKRS_FrAncestor_bulkdock_iter1_exported,BulkDock Fragalysis export

>  <inchikey>  (200) 
BLUWEFXNHKAXJS-UHFFFAOYSA-N

>  <placement_batch>  (200) 
CpKRS_FrAncestor_bulkdock_iter1_cluster_best5

>  <alias>  (200) 
C188870-P28

>  <name>  (200) 
C188870-P28

>  <smiles>  (200) 
CCOc1ncccc1C(=O)Nc1ncccc1I

>  <subsites>  (200) 


>  <distance_score>  (200) 
0.625793

$$$$
C189605-P55
     RDKit          3D

 15 16  0  0  0  0  0  0  0  0999 V2000
    1.3451  -15.0878   28.8784 C   0  0  0  0  0  0  0  0  0  0  0  0
    2.3218  -15.0006   27.7701 C   0  0  0  0  0  0  0  0  0  0  0  0
    3.5017  -15.6904   27.5989 C   0  0  0  0  0  0  0  0  0  0  0  0
    4.2740  -15.2950   26.5289 N   0  0  0  0  0  0  0  0  0  0  0  0
    3.6666  -14.3151   25.8797 C   0  0  0  0  0  0  0  0  0  0  0  0
    4.2803  -13.6207   24.7557 C   0  0  0  0  0  0  0  0  0  0  0  0
    5.4564  -13.7134   24.4148 O   0  0  0  0  0  0  0  0  0  0  0  0
    3.3701  -12.8518   24.0783 O   0  0  0  0  0  0  0  0  0  0  0  0
    3.8482  -12.3127   22.8397 C   0  0  0  0  0  0  0  0  0  0  0  0
    4.3719  -10.9196   23.0511 C   0  0  0  0  0  0  0  0  0  0  0  0
    4.2255  -10.1787   24.1342 N   0  0  0  0  0  0  0  0  0  0  0  0
    4.8971   -8.9807   23.9817 C   0  0  0  0  0  0  0  0  0  0  0  0
    5.4702   -8.7755   22.7483 C   0  0  0  0  0  0  0  0  0  0  0  0
    5.2075  -10.1417   21.7572 S   0  0  0  0  0  0  0  0  0  0  0  0
    2.1042  -13.9075   26.4726 S   0  0  0  0  0  0  0  0  0  0  0  0
  1  2  1  0
  2  3  2  0
  3  4  1  0
  4  5  2  0
  5  6  1  0
  6  7  2  0
  6  8  1  0
  8  9  1  0
  9 10  1  0
 10 11  2  0
 11 12  1  0
 12 13  2  0
 13 14  1  0
  5 15  1  0
 15  2  1  0
 14 10  1  0
M  END
>  <inspiration_score>  (201) 
0.712

>  <HIPPO Pose ID>  (201) 
1089214

>  <ref_pdb>  (201) 
x0485a

>  <ref_mols>  (201) 
x0646a

>  <HIPPO Compound ID>  (201) 
189605

>  <energy_score>  (201) 
-90.819416

>  <tags>  (201) 
CpKRS_FrAncestor_bulkdock_iter1,CpKRS_FrAncestor_bulkdock_iter1_cluster_best5,fragmenstein_placed,CpKRS_FrAncestor_bulkdock_iter1_exported,BulkDock Fragalysis export

>  <inchikey>  (201) 
RACILRRTTZNAFD-UHFFFAOYSA-N

>  <placement_batch>  (201) 
CpKRS_FrAncestor_bulkdock_iter1_cluster_best5

>  <alias>  (201) 
C189605-P55

>  <name>  (201) 
C189605-P55

>  <smiles>  (201) 
Cc1cnc(C(=O)OCc2nccs2)s1

>  <subsites>  (201) 


>  <distance_score>  (201) 
0.383948

$$$$
C190086-P34
     RDKit          3D

 17 18  0  0  0  0  0  0  0  0999 V2000
    1.3339  -14.9720   29.5427 C   0  0  0  0  0  0  0  0  0  0  0  0
    0.8221  -14.2051   28.4706 O   0  0  0  0  0  0  0  0  0  0  0  0
    1.7220  -14.0721   27.4424 C   0  0  0  0  0  0  0  0  0  0  0  0
    1.3288  -13.1846   26.4562 C   0  0  0  0  0  0  0  0  0  0  0  0
    2.2155  -12.9202   25.4327 C   0  0  0  0  0  0  0  0  0  0  0  0
    3.4480  -13.5730   25.4298 C   0  0  0  0  0  0  0  0  0  0  0  0
    4.4854  -13.2705   24.4403 C   0  0  0  0  0  0  0  0  0  0  0  0
    5.6402  -13.6366   24.5546 O   0  0  0  0  0  0  0  0  0  0  0  0
    3.9680  -12.5077   23.4494 O   0  0  0  0  0  0  0  0  0  0  0  0
    4.9171  -12.0025   22.5120 C   0  0  0  0  0  0  0  0  0  0  0  0
    5.1838  -10.5758   22.8806 C   0  0  0  0  0  0  0  0  0  0  0  0
    5.5980  -10.1459   24.0584 N   0  0  0  0  0  0  0  0  0  0  0  0
    5.7303   -8.7748   24.0362 C   0  0  0  0  0  0  0  0  0  0  0  0
    5.4241   -8.1757   22.8400 C   0  0  0  0  0  0  0  0  0  0  0  0
    4.9260   -9.3459   21.7103 S   0  0  0  0  0  0  0  0  0  0  0  0
    3.7284  -14.4885   26.4386 C   0  0  0  0  0  0  0  0  0  0  0  0
    2.8838  -14.7528   27.4617 N   0  0  0  0  0  0  0  0  0  0  0  0
  1  2  1  0
  2  3  1  0
  3  4  2  0
  4  5  1  0
  5  6  2  0
  6  7  1  0
  7  8  2  0
  7  9  1  0
  9 10  1  0
 10 11  1  0
 11 12  2  0
 12 13  1  0
 13 14  2  0
 14 15  1  0
  6 16  1  0
 16 17  2  0
 17  3  1  0
 15 11  1  0
M  END
>  <inspiration_score>  (202) 
0.754

>  <HIPPO Pose ID>  (202) 
1090566

>  <ref_pdb>  (202) 
x0485a

>  <ref_mols>  (202) 
x0492a

>  <HIPPO Compound ID>  (202) 
190086

>  <energy_score>  (202) 
-66.029023

>  <tags>  (202) 
CpKRS_FrAncestor_bulkdock_iter1,CpKRS_FrAncestor_bulkdock_iter1_cluster_best5,fragmenstein_placed,CpKRS_FrAncestor_bulkdock_iter1_exported,BulkDock Fragalysis export

>  <inchikey>  (202) 
VIBJAYQBMYMPQD-UHFFFAOYSA-N

>  <placement_batch>  (202) 
CpKRS_FrAncestor_bulkdock_iter1_cluster_best5

>  <alias>  (202) 
C190086-P34

>  <name>  (202) 
C190086-P34

>  <smiles>  (202) 
COc1ccc(C(=O)OCc2nccs2)cn1

>  <subsites>  (202) 


>  <distance_score>  (202) 
0.498474

$$$$
C190771-P5
     RDKit          3D

 15 16  0  0  0  0  0  0  0  0999 V2000
    2.6119  -16.3477   27.7842 C   0  0  0  0  0  0  0  0  0  0  0  0
    2.3843  -15.1770   26.9065 C   0  0  0  0  0  0  0  0  0  0  0  0
    1.2494  -14.5141   26.8037 N   0  0  0  0  0  0  0  0  0  0  0  0
    1.3400  -13.4770   25.8956 N   0  0  0  0  0  0  0  0  0  0  0  0
    2.5440  -13.3914   25.3830 C   0  0  0  0  0  0  0  0  0  0  0  0
    2.9306  -12.4336   24.5112 N   0  0  0  0  0  0  0  0  0  0  0  0
    4.3147  -12.1174   23.9251 C   0  0  0  0  0  0  0  0  0  0  0  0
    5.3281  -12.6778   24.0391 O   0  0  0  0  0  0  0  0  0  0  0  0
    4.2791  -10.8611   23.1590 C   0  0  0  0  0  0  0  0  0  0  0  0
    5.0051  -10.6758   21.9924 N   0  0  0  0  0  0  0  0  0  0  0  0
    4.8233   -9.4140   21.6970 C   0  0  0  0  0  0  0  0  0  0  0  0
    3.9967   -8.7391   22.5388 O   0  0  0  0  0  0  0  0  0  0  0  0
    3.6566   -9.6676   23.4875 C   0  0  0  0  0  0  0  0  0  0  0  0
    2.8031   -9.1741   24.5855 C   0  0  0  0  0  0  0  0  0  0  0  0
    3.6480  -14.5686   25.9179 S   0  0  0  0  0  0  0  0  0  0  0  0
  1  2  1  0
  2  3  2  0
  3  4  1  0
  4  5  2  0
  5  6  1  0
  6  7  1  0
  7  8  2  0
  7  9  1  0
  9 10  1  0
 10 11  2  0
 11 12  1  0
 12 13  1  0
 13 14  1  0
  5 15  1  0
 15  2  1  0
 13  9  2  0
M  END
>  <inspiration_score>  (203) 
0.738

>  <HIPPO Pose ID>  (203) 
1092516

>  <ref_pdb>  (203) 
x0485a

>  <ref_mols>  (203) 
x0407b

>  <HIPPO Compound ID>  (203) 
190771

>  <energy_score>  (203) 
-96.591583

>  <tags>  (203) 
CpKRS_FrAncestor_bulkdock_iter1,CpKRS_FrAncestor_bulkdock_iter1_cluster_best5,fragmenstein_placed,CpKRS_FrAncestor_bulkdock_iter1_exported,BulkDock Fragalysis export

>  <inchikey>  (203) 
NRSXUBYJQCRVRB-UHFFFAOYSA-N

>  <placement_batch>  (203) 
CpKRS_FrAncestor_bulkdock_iter1_cluster_best5

>  <alias>  (203) 
C190771-P5

>  <name>  (203) 
C190771-P5

>  <smiles>  (203) 
Cc1nnc(NC(=O)c2ncoc2C)s1

>  <subsites>  (203) 


>  <distance_score>  (203) 
0.629079

$$$$
C191716-P28
     RDKit          3D

 20 21  0  0  0  0  0  0  0  0999 V2000
   -0.4652    9.6885   42.0335 C   0  0  0  0  0  0  0  0  0  0  0  0
    0.6488    8.8893   42.4383 O   0  0  0  0  0  0  0  0  0  0  0  0
    1.7959    9.1044   41.7258 C   0  0  0  0  0  0  0  0  0  0  0  0
    2.0428   10.3058   41.0553 C   0  0  0  0  0  0  0  0  0  0  0  0
    3.1629   10.4457   40.2379 C   0  0  0  0  0  0  0  0  0  0  0  0
    3.2449   12.0837   38.9824 I   0  0  0  0  0  0  0  0  0  0  0  0
    4.1268    9.4482   40.1696 C   0  0  0  0  0  0  0  0  0  0  0  0
    3.9176    8.2629   40.8695 C   0  0  0  0  0  0  0  0  0  0  0  0
    2.7419    8.0815   41.6212 C   0  0  0  0  0  0  0  0  0  0  0  0
    2.5420    6.7078   42.1329 C   0  0  0  0  0  0  0  0  0  0  0  0
    2.2597    5.8700   41.3676 O   0  0  0  0  0  0  0  0  0  0  0  0
    2.8557    6.6203   43.6449 N   0  0  0  0  0  0  0  0  0  0  0  0
    2.9770    5.5105   44.4831 C   0  0  0  0  0  0  0  0  0  0  0  0
    2.4843    5.6481   45.7863 C   0  0  0  0  0  0  0  0  0  0  0  0
    2.5946    4.6013   46.7033 C   0  0  0  0  0  0  0  0  0  0  0  0
    3.2684    3.4395   46.3541 C   0  0  0  0  0  0  0  0  0  0  0  0
    3.8108    3.3210   45.0814 C   0  0  0  0  0  0  0  0  0  0  0  0
    4.5280    2.2192   44.8051 F   0  0  0  0  0  0  0  0  0  0  0  0
    3.6487    4.3288   44.1264 C   0  0  0  0  0  0  0  0  0  0  0  0
    4.5558    4.0857   42.4780 Br  0  0  0  0  0  0  0  0  0  0  0  0
  1  2  1  0
  2  3  1  0
  3  4  2  0
  4  5  1  0
  5  6  1  0
  5  7  2  0
  7  8  1  0
  8  9  2  0
  9 10  1  0
 10 11  2  0
 10 12  1  0
 12 13  1  0
 13 14  2  0
 14 15  1  0
 15 16  2  0
 16 17  1  0
 17 18  1  0
 17 19  2  0
 19 20  1  0
  9  3  1  0
 19 13  1  0
M  END
>  <inspiration_score>  (204) 
0.799

>  <HIPPO Pose ID>  (204) 
1095222

>  <ref_pdb>  (204) 
x0485b

>  <ref_mols>  (204) 
x0485b

>  <HIPPO Compound ID>  (204) 
191716

>  <energy_score>  (204) 
-249.87962

>  <tags>  (204) 
CpKRS_FrAncestor_bulkdock_iter1,CpKRS_FrAncestor_bulkdock_iter1_cluster_best5,fragmenstein_placed,CpKRS_FrAncestor_bulkdock_iter1_exported,BulkDock Fragalysis export

>  <inchikey>  (204) 
ONALEOOUWLOVAW-UHFFFAOYSA-N

>  <placement_batch>  (204) 
CpKRS_FrAncestor_bulkdock_iter1_cluster_best5

>  <alias>  (204) 
C191716-P28

>  <name>  (204) 
C191716-P28

>  <smiles>  (204) 
COc1cc(I)ccc1C(=O)Nc1cccc(F)c1Br

>  <subsites>  (204) 


>  <distance_score>  (204) 
0.455016

$$$$
C194428-P55
     RDKit          3D

 14 15  0  0  0  0  0  0  0  0999 V2000
    5.4117  -13.7605   24.5807 O   0  0  0  0  0  0  0  0  0  0  0  0
    4.2285  -13.6046   24.8642 C   0  0  0  0  0  0  0  0  0  0  0  0
    3.3694  -12.8355   24.1355 O   0  0  0  0  0  0  0  0  0  0  0  0
    3.9024  -12.3434   22.8989 C   0  0  0  0  0  0  0  0  0  0  0  0
    4.4273  -10.9466   23.0816 C   0  0  0  0  0  0  0  0  0  0  0  0
    4.3607  -10.2165   24.1790 N   0  0  0  0  0  0  0  0  0  0  0  0
    4.9805   -8.9982   23.9786 C   0  0  0  0  0  0  0  0  0  0  0  0
    5.4618   -8.7805   22.7086 C   0  0  0  0  0  0  0  0  0  0  0  0
    5.1685  -10.1558   21.7383 S   0  0  0  0  0  0  0  0  0  0  0  0
    3.5680  -14.2379   25.9798 C   0  0  0  0  0  0  0  0  0  0  0  0
    4.1208  -15.1577   26.8511 C   0  0  0  0  0  0  0  0  0  0  0  0
    3.2986  -15.6087   27.8671 N   0  0  0  0  0  0  0  0  0  0  0  0
    2.1230  -15.0323   27.7446 C   0  0  0  0  0  0  0  0  0  0  0  0
    1.9381  -13.9513   26.4266 S   0  0  0  0  0  0  0  0  0  0  0  0
  1  2  2  0
  2  3  1  0
  3  4  1  0
  4  5  1  0
  5  6  2  0
  6  7  1  0
  7  8  2  0
  8  9  1  0
  2 10  1  0
 10 11  2  0
 11 12  1  0
 12 13  2  0
 13 14  1  0
  9  5  1  0
 14 10  1  0
M  END
>  <inspiration_score>  (205) 
0.716

>  <HIPPO Pose ID>  (205) 
1102766

>  <ref_pdb>  (205) 
x0485b

>  <ref_mols>  (205) 
x0646a

>  <HIPPO Compound ID>  (205) 
194428

>  <energy_score>  (205) 
-84.88893

>  <tags>  (205) 
CpKRS_FrAncestor_bulkdock_iter1,CpKRS_FrAncestor_bulkdock_iter1_cluster_best5,fragmenstein_placed,CpKRS_FrAncestor_bulkdock_iter1_exported,BulkDock Fragalysis export

>  <inchikey>  (205) 
JMUNMCBUHWHMRP-UHFFFAOYSA-N

>  <placement_batch>  (205) 
CpKRS_FrAncestor_bulkdock_iter1_cluster_best5

>  <alias>  (205) 
C194428-P55

>  <name>  (205) 
C194428-P55

>  <smiles>  (205) 
O=C(OCc1nccs1)c1cncs1

>  <subsites>  (205) 


>  <distance_score>  (205) 
0.346866

$$$$
C194429-P4
     RDKit          3D

 13 14  0  0  0  0  0  0  0  0999 V2000
    5.2332  -13.2992   24.1291 O   0  0  0  0  0  0  0  0  0  0  0  0
    4.3435  -12.5487   24.1573 C   0  0  0  0  0  0  0  0  0  0  0  0
    3.0203  -12.6008   24.9377 N   0  0  0  0  0  0  0  0  0  0  0  0
    2.5792  -13.4852   25.8638 C   0  0  0  0  0  0  0  0  0  0  0  0
    1.4379  -13.3803   26.5074 N   0  0  0  0  0  0  0  0  0  0  0  0
    1.2233  -14.4679   27.3382 N   0  0  0  0  0  0  0  0  0  0  0  0
    2.2176  -15.3318   27.2680 C   0  0  0  0  0  0  0  0  0  0  0  0
    3.5218  -14.8405   26.2743 S   0  0  0  0  0  0  0  0  0  0  0  0
    4.4098  -11.3542   23.3253 C   0  0  0  0  0  0  0  0  0  0  0  0
    5.0458  -11.2374   22.1054 C   0  0  0  0  0  0  0  0  0  0  0  0
    5.0443   -9.9776   21.5393 N   0  0  0  0  0  0  0  0  0  0  0  0
    4.4643   -9.1416   22.3680 C   0  0  0  0  0  0  0  0  0  0  0  0
    3.7885   -9.8273   23.7870 S   0  0  0  0  0  0  0  0  0  0  0  0
  1  2  2  0
  2  3  1  0
  3  4  1  0
  4  5  2  0
  5  6  1  0
  6  7  2  0
  7  8  1  0
  2  9  1  0
  9 10  2  0
 10 11  1  0
 11 12  2  0
 12 13  1  0
  8  4  1  0
 13  9  1  0
M  END
>  <inspiration_score>  (206) 
0.768

>  <HIPPO Pose ID>  (206) 
1102767

>  <ref_pdb>  (206) 
x0485b

>  <ref_mols>  (206) 
x0407a

>  <HIPPO Compound ID>  (206) 
194429

>  <energy_score>  (206) 
-111.134877

>  <tags>  (206) 
CpKRS_FrAncestor_bulkdock_iter1,CpKRS_FrAncestor_bulkdock_iter1_cluster_best5,fragmenstein_placed,CpKRS_FrAncestor_bulkdock_iter1_exported,BulkDock Fragalysis export

>  <inchikey>  (206) 
XIBDRPFGOKHULH-UHFFFAOYSA-N

>  <placement_batch>  (206) 
CpKRS_FrAncestor_bulkdock_iter1_cluster_best5

>  <alias>  (206) 
C194429-P4

>  <name>  (206) 
C194429-P4

>  <smiles>  (206) 
O=C(Nc1nncs1)c1cncs1

>  <subsites>  (206) 


>  <distance_score>  (206) 
0.50375

$$$$
STJOMUQARKOUTI-UHFFFAOYSA-N-P4
     RDKit          3D

 15 16  0  0  0  0  0  0  0  0999 V2000
    2.3041  -16.6835   27.8015 C   0  0  0  0  0  0  0  0  0  0  0  0
    2.2475  -15.3388   27.2023 C   0  0  0  0  0  0  0  0  0  0  0  0
    1.2742  -14.4689   27.3922 N   0  0  0  0  0  0  0  0  0  0  0  0
    1.4771  -13.3174   26.6561 N   0  0  0  0  0  0  0  0  0  0  0  0
    2.5775  -13.3986   25.9437 C   0  0  0  0  0  0  0  0  0  0  0  0
    3.0605  -12.4255   25.1498 N   0  0  0  0  0  0  0  0  0  0  0  0
    4.2023  -12.4482   24.1306 C   0  0  0  0  0  0  0  0  0  0  0  0
    4.9613  -13.2895   23.8658 O   0  0  0  0  0  0  0  0  0  0  0  0
    4.2948  -11.1214   23.5395 C   0  0  0  0  0  0  0  0  0  0  0  0
    4.9509  -10.7768   22.3798 C   0  0  0  0  0  0  0  0  0  0  0  0
    4.9110   -9.4184   22.3585 N   0  0  0  0  0  0  0  0  0  0  0  0
    5.5271   -8.5929   21.3664 C   0  0  0  0  0  0  0  0  0  0  0  0
    4.2853   -8.9848   23.4826 C   0  0  0  0  0  0  0  0  0  0  0  0
    3.7916   -9.9894   24.1621 N   0  0  0  0  0  0  0  0  0  0  0  0
    3.5010  -14.8004   26.1775 S   0  0  0  0  0  0  0  0  0  0  0  0
  1  2  1  0
  2  3  2  0
  3  4  1  0
  4  5  2  0
  5  6  1  0
  6  7  1  0
  7  8  2  0
  7  9  1  0
  9 10  2  0
 10 11  1  0
 11 12  1  0
 11 13  1  0
 13 14  2  0
  5 15  1  0
 15  2  1  0
 14  9  1  0
M  END
>  <inspiration_score>  (207) 
0.866

>  <HIPPO Pose ID>  (207) 
1105530

>  <ref_pdb>  (207) 
x0485a

>  <ref_mols>  (207) 
x0407a

>  <HIPPO Compound ID>  (207) 
195440

>  <energy_score>  (207) 
-103.596641

>  <tags>  (207) 
CpKRS_FrAncestor_bulkdock_iter1,CpKRS_FrAncestor_bulkdock_iter1_cluster_best5,fragmenstein_placed,CpKRS_FrAncestor_bulkdock_iter1_exported,BulkDock Fragalysis export

>  <inchikey>  (207) 
STJOMUQARKOUTI-UHFFFAOYSA-N

>  <placement_batch>  (207) 
CpKRS_FrAncestor_bulkdock_iter1_cluster_best5

>  <alias>  (207) 
STJOMUQARKOUTI-UHFFFAOYSA-N-P4

>  <name>  (207) 
STJOMUQARKOUTI-UHFFFAOYSA-N-P4

>  <smiles>  (207) 
Cc1nnc(NC(=O)c2cn(C)cn2)s1

>  <subsites>  (207) 


>  <distance_score>  (207) 
0.546198

$$$$
QMBYFDQZERMYIS-UHFFFAOYSA-N-P29
     RDKit          3D

 21 22  0  0  0  0  0  0  0  0999 V2000
    0.0968   10.0681   42.4479 C   0  0  0  0  0  0  0  0  0  0  0  0
    1.0423    8.9911   42.4398 O   0  0  0  0  0  0  0  0  0  0  0  0
    2.1576    9.2984   41.7001 C   0  0  0  0  0  0  0  0  0  0  0  0
    2.2242   10.5364   41.1424 N   0  0  0  0  0  0  0  0  0  0  0  0
    3.2618   10.8058   40.3184 C   0  0  0  0  0  0  0  0  0  0  0  0
    4.2571    9.8943   40.0334 C   0  0  0  0  0  0  0  0  0  0  0  0
    5.4881   10.2099   38.8941 Cl  0  0  0  0  0  0  0  0  0  0  0  0
    4.2088    8.6583   40.6461 C   0  0  0  0  0  0  0  0  0  0  0  0
    3.1346    8.3396   41.4864 C   0  0  0  0  0  0  0  0  0  0  0  0
    3.1229    6.9409   41.9472 C   0  0  0  0  0  0  0  0  0  0  0  0
    3.3376    6.1431   41.1203 O   0  0  0  0  0  0  0  0  0  0  0  0
    2.9281    6.7762   43.4711 N   0  0  0  0  0  0  0  0  0  0  0  0
    3.0470    5.6445   44.2853 C   0  0  0  0  0  0  0  0  0  0  0  0
    3.6345    4.4981   43.7131 C   0  0  0  0  0  0  0  0  0  0  0  0
    3.9025    3.3601   44.4684 C   0  0  0  0  0  0  0  0  0  0  0  0
    3.5061    3.3264   45.7916 C   0  0  0  0  0  0  0  0  0  0  0  0
    2.8204    4.4136   46.3299 C   0  0  0  0  0  0  0  0  0  0  0  0
    2.0947    4.1706   47.8537 Cl  0  0  0  0  0  0  0  0  0  0  0  0
    2.6433    5.6081   45.6223 C   0  0  0  0  0  0  0  0  0  0  0  0
    1.9997    6.7126   46.2737 C   0  0  0  0  0  0  0  0  0  0  0  0
    1.4519    7.5697   46.8345 N   0  0  0  0  0  0  0  0  0  0  0  0
  1  2  1  0
  2  3  1  0
  3  4  2  0
  4  5  1  0
  5  6  2  0
  6  7  1  0
  6  8  1  0
  8  9  2  0
  9 10  1  0
 10 11  2  0
 10 12  1  0
 12 13  1  0
 13 14  2  0
 14 15  1  0
 15 16  2  0
 16 17  1  0
 17 18  1  0
 17 19  2  0
 19 20  1  0
 20 21  3  0
  9  3  1  0
 19 13  1  0
M  END
>  <inspiration_score>  (208) 
0.715

>  <HIPPO Pose ID>  (208) 
1115301

>  <ref_pdb>  (208) 
x0485a

>  <ref_mols>  (208) 
x0485c

>  <HIPPO Compound ID>  (208) 
202249

>  <energy_score>  (208) 
-273.656177

>  <tags>  (208) 
CpKRS_FrAncestor_bulkdock_iter1,CpKRS_FrAncestor_bulkdock_iter1_cluster_best5,fragmenstein_placed,CpKRS_FrAncestor_bulkdock_iter1_exported,BulkDock Fragalysis export

>  <inchikey>  (208) 
QMBYFDQZERMYIS-UHFFFAOYSA-N

>  <placement_batch>  (208) 
CpKRS_FrAncestor_bulkdock_iter1_cluster_best5

>  <alias>  (208) 
QMBYFDQZERMYIS-UHFFFAOYSA-N-P29

>  <name>  (208) 
QMBYFDQZERMYIS-UHFFFAOYSA-N-P29

>  <smiles>  (208) 
COc1ncc(Cl)cc1C(=O)Nc1cccc(Cl)c1C#N

>  <subsites>  (208) 


>  <distance_score>  (208) 
0.726152

$$$$
GDNKFJZEJWLZJV-UHFFFAOYSA-N-P5
     RDKit          3D

 15 16  0  0  0  0  0  0  0  0999 V2000
    5.4713   -7.6651   22.8064 C   0  0  0  0  0  0  0  0  0  0  0  0
    5.0684   -9.0789   22.6431 C   0  0  0  0  0  0  0  0  0  0  0  0
    5.3049   -9.8081   21.5759 N   0  0  0  0  0  0  0  0  0  0  0  0
    5.0722  -11.1348   21.8848 C   0  0  0  0  0  0  0  0  0  0  0  0
    4.5453  -11.3768   23.1329 C   0  0  0  0  0  0  0  0  0  0  0  0
    4.3278  -12.6612   23.7725 C   0  0  0  0  0  0  0  0  0  0  0  0
    5.0335  -13.5538   23.5271 O   0  0  0  0  0  0  0  0  0  0  0  0
    3.1483  -12.5643   24.7516 N   0  0  0  0  0  0  0  0  0  0  0  0
    2.6771  -13.4559   25.6464 C   0  0  0  0  0  0  0  0  0  0  0  0
    1.6119  -13.2722   26.3893 N   0  0  0  0  0  0  0  0  0  0  0  0
    1.4307  -14.3189   27.2710 N   0  0  0  0  0  0  0  0  0  0  0  0
    2.3760  -15.2297   27.1471 C   0  0  0  0  0  0  0  0  0  0  0  0
    2.4921  -16.4489   27.9723 C   0  0  0  0  0  0  0  0  0  0  0  0
    3.5347  -14.8925   25.9330 S   0  0  0  0  0  0  0  0  0  0  0  0
    4.3042   -9.8914   23.9394 S   0  0  0  0  0  0  0  0  0  0  0  0
  1  2  1  0
  2  3  2  0
  3  4  1  0
  4  5  2  0
  5  6  1  0
  6  7  2  0
  6  8  1  0
  8  9  1  0
  9 10  2  0
 10 11  1  0
 11 12  2  0
 12 13  1  0
 12 14  1  0
  5 15  1  0
 15  2  1  0
 14  9  1  0
M  END
>  <inspiration_score>  (209) 
0.747

>  <HIPPO Pose ID>  (209) 
1117100

>  <ref_pdb>  (209) 
x0485a

>  <ref_mols>  (209) 
x0407b

>  <HIPPO Compound ID>  (209) 
202892

>  <energy_score>  (209) 
-138.424422

>  <tags>  (209) 
CpKRS_FrAncestor_bulkdock_iter1,CpKRS_FrAncestor_bulkdock_iter1_cluster_best5,fragmenstein_placed,CpKRS_FrAncestor_bulkdock_iter1_exported,BulkDock Fragalysis export

>  <inchikey>  (209) 
GDNKFJZEJWLZJV-UHFFFAOYSA-N

>  <placement_batch>  (209) 
CpKRS_FrAncestor_bulkdock_iter1_cluster_best5

>  <alias>  (209) 
GDNKFJZEJWLZJV-UHFFFAOYSA-N-P5

>  <name>  (209) 
GDNKFJZEJWLZJV-UHFFFAOYSA-N-P5

>  <smiles>  (209) 
Cc1ncc(C(=O)Nc2nnc(C)s2)s1

>  <subsites>  (209) 


>  <distance_score>  (209) 
0.531978

$$$$
PEUHGWPGEAACMU-UHFFFAOYSA-N-P29
     RDKit          3D

 25 26  0  0  0  0  0  0  0  0999 V2000
    0.7048    8.0310   47.1268 C   0  0  0  0  0  0  0  0  0  0  0  0
    1.6747    7.2538   46.4229 O   0  0  0  0  0  0  0  0  0  0  0  0
    1.7225    5.9767   46.8437 C   0  0  0  0  0  0  0  0  0  0  0  0
    1.0733    5.5175   47.7703 O   0  0  0  0  0  0  0  0  0  0  0  0
    2.6542    5.1292   46.0775 C   0  0  0  0  0  0  0  0  0  0  0  0
    3.0388    3.9642   46.7574 C   0  0  0  0  0  0  0  0  0  0  0  0
    3.7713    3.0127   46.0891 C   0  0  0  0  0  0  0  0  0  0  0  0
    4.0909    3.1099   44.7903 N   0  0  0  0  0  0  0  0  0  0  0  0
    3.7078    4.2418   44.1499 C   0  0  0  0  0  0  0  0  0  0  0  0
    3.0419    5.3131   44.7479 C   0  0  0  0  0  0  0  0  0  0  0  0
    2.8614    6.4860   44.0049 N   0  0  0  0  0  0  0  0  0  0  0  0
    3.1014    6.7709   42.5017 C   0  0  0  0  0  0  0  0  0  0  0  0
    3.4130    6.0518   41.6352 O   0  0  0  0  0  0  0  0  0  0  0  0
    2.9222    8.2010   42.1489 C   0  0  0  0  0  0  0  0  0  0  0  0
    1.6754    8.8008   42.2940 C   0  0  0  0  0  0  0  0  0  0  0  0
    1.4495   10.1006   41.8330 C   0  0  0  0  0  0  0  0  0  0  0  0
    2.4616   10.8017   41.1765 C   0  0  0  0  0  0  0  0  0  0  0  0
    2.3431   12.0875   40.7096 O   0  0  0  0  0  0  0  0  0  0  0  0
    1.0692   12.7086   40.8393 C   0  0  0  0  0  0  0  0  0  0  0  0
    3.7088   10.1748   40.9925 C   0  0  0  0  0  0  0  0  0  0  0  0
    4.7251   10.8320   40.3429 O   0  0  0  0  0  0  0  0  0  0  0  0
    4.4647   10.8610   38.9352 C   0  0  0  0  0  0  0  0  0  0  0  0
    3.9528    8.8918   41.5071 C   0  0  0  0  0  0  0  0  0  0  0  0
    5.2047    8.3348   41.5225 O   0  0  0  0  0  0  0  0  0  0  0  0
    5.6660    7.9654   40.2222 C   0  0  0  0  0  0  0  0  0  0  0  0
  1  2  1  0
  2  3  1  0
  3  4  2  0
  3  5  1  0
  5  6  2  0
  6  7  1  0
  7  8  2  0
  8  9  1  0
  9 10  2  0
 10 11  1  0
 11 12  1  0
 12 13  2  0
 12 14  1  0
 14 15  2  0
 15 16  1  0
 16 17  2  0
 17 18  1  0
 18 19  1  0
 17 20  1  0
 20 21  1  0
 21 22  1  0
 20 23  2  0
 23 24  1  0
 24 25  1  0
 10  5  1  0
 23 14  1  0
M  END
>  <inspiration_score>  (210) 
0.71

>  <HIPPO Pose ID>  (210) 
1120323

>  <ref_pdb>  (210) 
x0485a

>  <ref_mols>  (210) 
x0485c

>  <HIPPO Compound ID>  (210) 
204061

>  <energy_score>  (210) 
-270.344292

>  <tags>  (210) 
CpKRS_FrAncestor_bulkdock_iter1,CpKRS_FrAncestor_bulkdock_iter1_cluster_best5,fragmenstein_placed,CpKRS_FrAncestor_bulkdock_iter1_exported,BulkDock Fragalysis export

>  <inchikey>  (210) 
PEUHGWPGEAACMU-UHFFFAOYSA-N

>  <placement_batch>  (210) 
CpKRS_FrAncestor_bulkdock_iter1_cluster_best5

>  <alias>  (210) 
PEUHGWPGEAACMU-UHFFFAOYSA-N-P29

>  <name>  (210) 
PEUHGWPGEAACMU-UHFFFAOYSA-N-P29

>  <smiles>  (210) 
COC(=O)c1ccncc1NC(=O)c1ccc(OC)c(OC)c1OC

>  <subsites>  (210) 


>  <distance_score>  (210) 
0.425109

$$$$
IIUCEUYWFMSSOA-UHFFFAOYSA-N-P30
     RDKit          3D

 22 23  0  0  0  0  0  0  0  0999 V2000
    4.2222  -16.4613   29.1827 C   0  0  0  0  0  0  0  0  0  0  0  0
    3.2218  -15.4870   29.3617 O   0  0  0  0  0  0  0  0  0  0  0  0
    2.8836  -14.8499   28.2010 C   0  0  0  0  0  0  0  0  0  0  0  0
    1.5423  -14.4902   28.1271 C   0  0  0  0  0  0  0  0  0  0  0  0
    1.0452  -13.7980   27.0251 C   0  0  0  0  0  0  0  0  0  0  0  0
    1.9106  -13.3876   26.0302 C   0  0  0  0  0  0  0  0  0  0  0  0
    3.2744  -13.6585   26.1656 C   0  0  0  0  0  0  0  0  0  0  0  0
    4.2249  -12.9469   25.3044 C   0  0  0  0  0  0  0  0  0  0  0  0
    5.0670  -13.5314   24.7532 O   0  0  0  0  0  0  0  0  0  0  0  0
    3.8750  -11.4466   25.2874 N   0  0  0  0  0  0  0  0  0  0  0  0
    4.4053  -10.4129   24.5481 C   0  0  0  0  0  0  0  0  0  0  0  0
    4.3940   -9.1408   25.1196 C   0  0  0  0  0  0  0  0  0  0  0  0
    4.9558   -8.0805   24.4384 C   0  0  0  0  0  0  0  0  0  0  0  0
    5.4501   -8.3135   23.1651 C   0  0  0  0  0  0  0  0  0  0  0  0
    5.6359   -7.2744   22.2563 C   0  0  0  0  0  0  0  0  0  0  0  0
    5.6807   -6.5375   21.3745 N   0  0  0  0  0  0  0  0  0  0  0  0
    5.5104   -9.5651   22.5962 C   0  0  0  0  0  0  0  0  0  0  0  0
    4.9356  -10.6066   23.2745 C   0  0  0  0  0  0  0  0  0  0  0  0
    4.5552  -12.1897   22.0786 I   0  0  0  0  0  0  0  0  0  0  0  0
    3.7653  -14.4395   27.2049 C   0  0  0  0  0  0  0  0  0  0  0  0
    5.1092  -14.5509   27.4022 O   0  0  0  0  0  0  0  0  0  0  0  0
    5.7309  -15.5004   26.5671 C   0  0  0  0  0  0  0  0  0  0  0  0
  1  2  1  0
  2  3  1  0
  3  4  2  0
  4  5  1  0
  5  6  2  0
  6  7  1  0
  7  8  1  0
  8  9  2  0
  8 10  1  0
 10 11  1  0
 11 12  2  0
 12 13  1  0
 13 14  2  0
 14 15  1  0
 15 16  3  0
 14 17  1  0
 17 18  2  0
 18 19  1  0
  7 20  2  0
 20 21  1  0
 21 22  1  0
 20  3  1  0
 18 11  1  0
M  END
>  <inspiration_score>  (211) 
0.733

>  <HIPPO Pose ID>  (211) 
1123824

>  <ref_pdb>  (211) 
x0485b

>  <ref_mols>  (211) 
x0485a

>  <HIPPO Compound ID>  (211) 
205327

>  <energy_score>  (211) 
-391.155877

>  <tags>  (211) 
CpKRS_FrAncestor_bulkdock_iter1,CpKRS_FrAncestor_bulkdock_iter1_cluster_best5,fragmenstein_placed,CpKRS_FrAncestor_bulkdock_iter1_exported,BulkDock Fragalysis export

>  <inchikey>  (211) 
IIUCEUYWFMSSOA-UHFFFAOYSA-N

>  <placement_batch>  (211) 
CpKRS_FrAncestor_bulkdock_iter1_cluster_best5

>  <alias>  (211) 
IIUCEUYWFMSSOA-UHFFFAOYSA-N-P30

>  <name>  (211) 
IIUCEUYWFMSSOA-UHFFFAOYSA-N-P30

>  <smiles>  (211) 
COc1cccc(C(=O)Nc2ccc(C#N)cc2I)c1OC

>  <subsites>  (211) 


>  <distance_score>  (211) 
0.636217

$$$$
AIXHJYUWYMFSBU-UHFFFAOYSA-N-P52
     RDKit          3D

 10 10  0  0  0  0  0  0  0  0999 V2000
   20.7887    8.9314   26.3114 O   0  0  0  0  0  0  0  0  0  0  0  0
   21.8160    8.0059   25.4079 S   0  0  0  0  0  0  0  0  0  0  0  0
   20.9839    7.5645   24.1125 O   0  0  0  0  0  0  0  0  0  0  0  0
   22.8556    9.1466   24.4829 C   0  0  0  0  0  0  0  0  0  0  0  0
   24.5510    8.9791   24.3861 S   0  0  0  0  0  0  0  0  0  0  0  0
   24.5892   10.3645   23.4038 C   0  0  0  0  0  0  0  0  0  0  0  0
   26.0856   10.9315   22.7877 Cl  0  0  0  0  0  0  0  0  0  0  0  0
   23.4512   10.9596   23.1495 N   0  0  0  0  0  0  0  0  0  0  0  0
   22.4364   10.2555   23.7784 C   0  0  0  0  0  0  0  0  0  0  0  0
   20.8261   10.8103   23.6134 Cl  0  0  0  0  0  0  0  0  0  0  0  0
  2  1  1  1
  2  3  1  0
  2  4  1  0
  4  5  1  0
  5  6  1  0
  6  7  1  0
  6  8  2  0
  8  9  1  0
  9 10  1  0
  9  4  2  0
M  CHG  2   1  -1   2   1
M  END
>  <inspiration_score>  (212) 
0.739

>  <HIPPO Pose ID>  (212) 
1124383

>  <ref_pdb>  (212) 
x0419a

>  <ref_mols>  (212) 
x0639a

>  <HIPPO Compound ID>  (212) 
209080

>  <energy_score>  (212) 
-107.069504

>  <tags>  (212) 
CpKRS_FrAncestor_bulkdock_iter1,CpKRS_FrAncestor_bulkdock_iter1_cluster_best5,fragmenstein_placed,CpKRS_FrAncestor_bulkdock_iter1_exported,BulkDock Fragalysis export

>  <inchikey>  (212) 
AIXHJYUWYMFSBU-UHFFFAOYSA-N

>  <placement_batch>  (212) 
CpKRS_FrAncestor_bulkdock_iter1_cluster_best5

>  <alias>  (212) 
AIXHJYUWYMFSBU-UHFFFAOYSA-N-P52

>  <name>  (212) 
AIXHJYUWYMFSBU-UHFFFAOYSA-N-P52

>  <smiles>  (212) 
[O-][S+](O)c1sc(Cl)nc1Cl

>  <subsites>  (212) 


>  <distance_score>  (212) 
0.913607

$$$$
MMKDSGJNELZRPK-UHFFFAOYSA-N-P33
     RDKit          3D

 16 17  0  0  0  0  0  0  0  0999 V2000
    5.3887   -8.2728   22.3064 C   0  0  0  0  0  0  0  0  0  0  0  0
    5.1630   -8.4456   23.7943 C   0  0  0  0  0  0  0  0  0  0  0  0
    4.6097   -9.7325   24.0799 O   0  0  0  0  0  0  0  0  0  0  0  0
    3.2790   -9.8736   23.8092 C   0  0  0  0  0  0  0  0  0  0  0  0
    2.5700   -8.9922   23.3296 O   0  0  0  0  0  0  0  0  0  0  0  0
    2.7655  -11.1944   24.1534 C   0  0  0  0  0  0  0  0  0  0  0  0
    1.4534  -11.5558   23.9189 C   0  0  0  0  0  0  0  0  0  0  0  0
    1.1440  -13.1081   24.5371 S   0  0  0  0  0  0  0  0  0  0  0  0
    2.7745  -13.2094   25.0891 C   0  0  0  0  0  0  0  0  0  0  0  0
    3.2027  -14.4081   25.8837 C   0  0  0  0  0  0  0  0  0  0  0  0
    2.4515  -14.5161   27.2065 C   0  0  0  0  0  0  0  0  0  0  0  0
    2.9479  -15.7138   27.9862 C   0  0  0  0  0  0  0  0  0  0  0  0
    4.3506  -15.6519   28.2054 O   0  0  0  0  0  0  0  0  0  0  0  0
    5.0738  -15.6658   26.9753 C   0  0  0  0  0  0  0  0  0  0  0  0
    4.7066  -14.4894   26.0875 C   0  0  0  0  0  0  0  0  0  0  0  0
    3.5360  -12.1874   24.7599 N   0  0  0  0  0  0  0  0  0  0  0  0
  1  2  1  0
  2  3  1  0
  3  4  1  0
  4  5  2  0
  4  6  1  0
  6  7  2  0
  7  8  1  0
  8  9  1  0
  9 10  1  0
 10 11  1  0
 11 12  1  0
 12 13  1  0
 13 14  1  0
 14 15  1  0
  9 16  2  0
 16  6  1  0
 15 10  1  0
M  END
>  <inspiration_score>  (213) 
0.442

>  <HIPPO Pose ID>  (213) 
1124569

>  <ref_pdb>  (213) 
x0419a

>  <ref_mols>  (213) 
x0489a

>  <HIPPO Compound ID>  (213) 
209154

>  <energy_score>  (213) 
-84.43175

>  <tags>  (213) 
CpKRS_FrAncestor_bulkdock_iter1,CpKRS_FrAncestor_bulkdock_iter1_cluster_best5,fragmenstein_placed,CpKRS_FrAncestor_bulkdock_iter1_exported,BulkDock Fragalysis export

>  <inchikey>  (213) 
MMKDSGJNELZRPK-UHFFFAOYSA-N

>  <placement_batch>  (213) 
CpKRS_FrAncestor_bulkdock_iter1_cluster_best5

>  <alias>  (213) 
MMKDSGJNELZRPK-UHFFFAOYSA-N-P33

>  <name>  (213) 
MMKDSGJNELZRPK-UHFFFAOYSA-N-P33

>  <smiles>  (213) 
CCOC(=O)c1csc(C2CCOCC2)n1

>  <subsites>  (213) 


>  <distance_score>  (213) 
0.932776

$$$$
XROFAUBWHWUNFT-UHFFFAOYSA-N-P9
     RDKit          3D

 22 23  0  0  0  0  0  0  0  0999 V2000
    3.9774  -13.9550   23.7213 O   0  0  0  0  0  0  0  0  0  0  0  0
    3.3572  -13.2773   24.8223 S   0  0  0  0  0  0  0  0  0  0  0  0
    4.0887  -12.2465   25.4988 O   0  0  0  0  0  0  0  0  0  0  0  0
    1.9724  -12.5017   24.2911 N   0  0  0  0  0  0  0  0  0  0  0  0
    0.8782  -13.2639   23.6771 C   0  0  0  0  0  0  0  0  0  0  0  0
   -0.4332  -12.5324   24.0102 C   0  0  0  0  0  0  0  0  0  0  0  0
   -1.6820  -13.1596   23.4261 C   0  0  0  0  0  0  0  0  0  0  0  0
   -2.1268  -12.7011   22.1725 C   0  0  0  0  0  0  0  0  0  0  0  0
   -3.2624  -13.2308   21.5616 C   0  0  0  0  0  0  0  0  0  0  0  0
   -3.9874  -14.2265   22.1983 C   0  0  0  0  0  0  0  0  0  0  0  0
   -3.5722  -14.6901   23.4446 C   0  0  0  0  0  0  0  0  0  0  0  0
   -2.4222  -14.1694   24.0780 C   0  0  0  0  0  0  0  0  0  0  0  0
   -2.0077  -14.7698   25.3978 C   0  0  0  0  0  0  0  0  0  0  0  0
   -0.8947  -15.5429   25.2726 F   0  0  0  0  0  0  0  0  0  0  0  0
   -2.9524  -15.5985   25.9305 F   0  0  0  0  0  0  0  0  0  0  0  0
   -1.7279  -13.8748   26.3911 F   0  0  0  0  0  0  0  0  0  0  0  0
    2.7122  -14.3634   25.9191 N   0  0  0  0  0  0  0  0  0  0  0  0
    2.0125  -13.7884   27.0912 C   0  0  0  0  0  0  0  0  0  0  0  0
    1.3021  -14.9030   27.8647 C   0  0  0  0  0  0  0  0  0  0  0  0
    2.2134  -15.9202   28.3009 O   0  0  0  0  0  0  0  0  0  0  0  0
    2.8746  -16.4901   27.1531 C   0  0  0  0  0  0  0  0  0  0  0  0
    3.6597  -15.4236   26.3776 C   0  0  0  0  0  0  0  0  0  0  0  0
  1  2  2  0
  2  3  2  0
  2  4  1  0
  4  5  1  0
  5  6  1  0
  6  7  1  0
  7  8  2  0
  8  9  1  0
  9 10  2  0
 10 11  1  0
 11 12  2  0
 12 13  1  0
 13 14  1  0
 13 15  1  0
 13 16  1  0
  2 17  1  0
 17 18  1  0
 18 19  1  0
 19 20  1  0
 20 21  1  0
 21 22  1  0
 12  7  1  0
 22 17  1  0
M  END
>  <inspiration_score>  (214) 
0.302

>  <HIPPO Pose ID>  (214) 
1125892

>  <ref_pdb>  (214) 
x0419a

>  <ref_mols>  (214) 
x0419a

>  <HIPPO Compound ID>  (214) 
209725

>  <energy_score>  (214) 
-68.958922

>  <tags>  (214) 
CpKRS_FrAncestor_bulkdock_iter1,CpKRS_FrAncestor_bulkdock_iter1_cluster_best5,fragmenstein_placed,CpKRS_FrAncestor_bulkdock_iter1_exported,BulkDock Fragalysis export

>  <inchikey>  (214) 
XROFAUBWHWUNFT-UHFFFAOYSA-N

>  <placement_batch>  (214) 
CpKRS_FrAncestor_bulkdock_iter1_cluster_best5

>  <alias>  (214) 
XROFAUBWHWUNFT-UHFFFAOYSA-N-P9

>  <name>  (214) 
XROFAUBWHWUNFT-UHFFFAOYSA-N-P9

>  <smiles>  (214) 
O=S(=O)(NCCc1ccccc1C(F)(F)F)N1CCOCC1

>  <subsites>  (214) 


>  <distance_score>  (214) 
0.899721

$$$$
VXRABZXLXPDFJT-UHFFFAOYSA-N-P5
     RDKit          3D

 22 23  0  0  0  0  0  0  0  0999 V2000
    0.8593   -8.4995   24.6678 C   0  0  0  0  0  0  0  0  0  0  0  0
    1.8353   -9.6397   24.3259 C   0  0  0  0  0  0  0  0  0  0  0  0
    1.1229  -10.5072   23.2916 C   0  0  0  0  0  0  0  0  0  0  0  0
    3.1591   -9.0558   23.8046 C   0  0  0  0  0  0  0  0  0  0  0  0
    4.4913   -9.8223   24.0020 C   0  0  2  0  0  0  0  0  0  0  0  0
    5.6484   -9.0064   23.3789 C   0  0  0  0  0  0  0  0  0  0  0  0
    5.6885   -9.0119   21.9471 O   0  0  0  0  0  0  0  0  0  0  0  0
    4.8803  -10.0051   21.3186 C   0  0  0  0  0  0  0  0  0  0  0  0
    4.7345  -11.3414   22.0513 C   0  0  0  0  0  0  0  0  0  0  0  0
    4.6268  -11.1760   23.4801 N   0  0  0  0  0  0  0  0  0  0  0  0
    4.6570  -12.3100   24.2995 C   0  0  0  0  0  0  0  0  0  0  0  0
    5.6578  -12.7253   24.7185 O   0  0  0  0  0  0  0  0  0  0  0  0
    3.2133  -12.7445   24.5645 N   0  0  0  0  0  0  0  0  0  0  0  0
    2.7170  -13.6625   25.4195 C   0  0  0  0  0  0  0  0  0  0  0  0
    1.4429  -13.7967   25.6969 N   0  0  0  0  0  0  0  0  0  0  0  0
    1.2442  -14.6946   26.7254 N   0  0  0  0  0  0  0  0  0  0  0  0
    2.3801  -15.2291   27.1422 C   0  0  0  0  0  0  0  0  0  0  0  0
    2.5447  -16.1643   28.2803 C   0  0  0  0  0  0  0  0  0  0  0  0
    1.3940  -16.3451   28.9928 F   0  0  0  0  0  0  0  0  0  0  0  0
    3.4547  -15.7224   29.1931 F   0  0  0  0  0  0  0  0  0  0  0  0
    2.9686  -17.3907   27.9065 F   0  0  0  0  0  0  0  0  0  0  0  0
    3.7596  -14.7032   26.2600 S   0  0  0  0  0  0  0  0  0  0  0  0
  1  2  1  0
  2  3  1  0
  2  4  1  0
  5  4  1  6
  5  6  1  0
  6  7  1  0
  7  8  1  0
  8  9  1  0
  9 10  1  0
 10 11  1  0
 11 12  2  0
 11 13  1  0
 13 14  1  0
 14 15  2  0
 15 16  1  0
 16 17  2  0
 17 18  1  0
 18 19  1  0
 18 20  1  0
 18 21  1  0
 17 22  1  0
 10  5  1  0
 22 14  1  0
M  END
>  <inspiration_score>  (215) 
0.735

>  <HIPPO Pose ID>  (215) 
1125964

>  <ref_pdb>  (215) 
x0419a

>  <ref_mols>  (215) 
x0407b

>  <HIPPO Compound ID>  (215) 
209752

>  <energy_score>  (215) 
-83.741096

>  <tags>  (215) 
CpKRS_FrAncestor_bulkdock_iter1,CpKRS_FrAncestor_bulkdock_iter1_cluster_best5,fragmenstein_placed,CpKRS_FrAncestor_bulkdock_iter1_exported,BulkDock Fragalysis export

>  <inchikey>  (215) 
VXRABZXLXPDFJT-UHFFFAOYSA-N

>  <placement_batch>  (215) 
CpKRS_FrAncestor_bulkdock_iter1_cluster_best5

>  <alias>  (215) 
VXRABZXLXPDFJT-UHFFFAOYSA-N-P5

>  <name>  (215) 
VXRABZXLXPDFJT-UHFFFAOYSA-N-P5

>  <smiles>  (215) 
CC(C)CC1COCCN1C(=O)Nc1nnc(C(F)(F)F)s1

>  <subsites>  (215) 


>  <distance_score>  (215) 
0.631775

$$$$
KWSRRFFTRBGARR-UHFFFAOYSA-N-P55
     RDKit          3D

 19 21  0  0  0  0  0  0  0  0999 V2000
    5.2041   -7.5488   25.5303 C   0  0  0  0  0  0  0  0  0  0  0  0
    6.0118   -7.9025   24.2954 C   0  0  0  0  0  0  0  0  0  0  0  0
    5.4658   -9.0777   23.5774 C   0  0  0  0  0  0  0  0  0  0  0  0
    4.7729  -10.0937   24.0310 N   0  0  0  0  0  0  0  0  0  0  0  0
    4.5327  -10.8275   22.8890 C   0  0  0  0  0  0  0  0  0  0  0  0
    3.7146  -12.0930   22.8733 C   0  0  0  0  0  0  0  0  0  0  0  0
    3.1158  -12.5258   24.1359 N   0  0  0  0  0  0  0  0  0  0  0  0
    3.7093  -13.4765   24.9542 C   0  0  0  0  0  0  0  0  0  0  0  0
    5.0698  -13.7885   24.9111 C   0  0  0  0  0  0  0  0  0  0  0  0
    5.6673  -14.6982   25.8048 C   0  0  0  0  0  0  0  0  0  0  0  0
    4.9103  -15.3323   26.7844 C   0  0  0  0  0  0  0  0  0  0  0  0
    3.5740  -15.0095   26.8707 C   0  0  0  0  0  0  0  0  0  0  0  0
    3.0054  -14.0905   25.9824 C   0  0  0  0  0  0  0  0  0  0  0  0
    1.6038  -13.9030   26.3910 C   0  0  0  0  0  0  0  0  0  0  0  0
    0.7822  -13.1708   25.8687 O   0  0  0  0  0  0  0  0  0  0  0  0
    1.3969  -14.7000   27.4984 N   0  0  0  0  0  0  0  0  0  0  0  0
    2.5604  -15.4691   27.8572 C   0  0  0  0  0  0  0  0  0  0  0  0
    5.0481  -10.2908   21.7711 N   0  0  0  0  0  0  0  0  0  0  0  0
    5.6747   -9.1279   22.2292 O   0  0  0  0  0  0  0  0  0  0  0  0
  1  2  1  0
  2  3  1  0
  3  4  2  0
  4  5  1  0
  5  6  1  0
  6  7  1  0
  7  8  1  0
  8  9  2  0
  9 10  1  0
 10 11  2  0
 11 12  1  0
 12 13  2  0
 13 14  1  0
 14 15  2  0
 14 16  1  0
 16 17  1  0
  5 18  2  0
 18 19  1  0
 19  3  1  0
 13  8  1  0
 17 12  1  0
M  END
>  <inspiration_score>  (216) 
0.703

>  <HIPPO Pose ID>  (216) 
1126876

>  <ref_pdb>  (216) 
x0419a

>  <ref_mols>  (216) 
x0646a

>  <HIPPO Compound ID>  (216) 
210091

>  <energy_score>  (216) 
-122.563107

>  <tags>  (216) 
CpKRS_FrAncestor_bulkdock_iter1,CpKRS_FrAncestor_bulkdock_iter1_cluster_best5,fragmenstein_placed,CpKRS_FrAncestor_bulkdock_iter1_exported,BulkDock Fragalysis export

>  <inchikey>  (216) 
KWSRRFFTRBGARR-UHFFFAOYSA-N

>  <placement_batch>  (216) 
CpKRS_FrAncestor_bulkdock_iter1_cluster_best5

>  <alias>  (216) 
KWSRRFFTRBGARR-UHFFFAOYSA-N-P55

>  <name>  (216) 
KWSRRFFTRBGARR-UHFFFAOYSA-N-P55

>  <smiles>  (216) 
CCc1nc(CNc2cccc3c2C(=O)NC3)no1

>  <subsites>  (216) 


>  <distance_score>  (216) 
0.524362

$$$$
C527600-P14
     RDKit          3D

 17 21  0  0  0  0  0  0  0  0999 V2000
    5.4330  -13.7142   25.1041 O   0  0  0  0  0  0  0  0  0  0  0  0
    4.4123  -13.1574   25.0729 C   0  0  0  0  0  0  0  0  0  0  0  0
    4.0453  -11.7896   24.4912 N   0  0  0  0  0  0  0  0  0  0  0  0
    4.8607  -10.7859   23.9160 C   0  0  1  0  0  0  0  0  0  0  0  0
    5.1647  -10.8891   22.4420 C   0  0  2  0  0  0  0  0  0  0  0  0
    5.8432   -9.6425   21.8725 C   0  0  2  0  0  0  0  0  0  0  0  0
    6.0163   -8.3993   22.7494 C   0  0  0  0  0  0  0  0  0  0  0  0
    4.7031   -8.2312   23.4768 C   0  0  2  0  0  0  0  0  0  0  0  0
    4.1080   -9.4657   24.0836 C   0  0  1  0  0  0  0  0  0  0  0  0
    3.6454   -8.9941   22.7182 C   0  0  2  0  0  0  0  0  0  0  0  0
    4.3722   -9.8703   21.6771 C   0  0  2  0  0  0  0  0  0  0  0  0
    3.2340  -13.6896   25.7345 C   0  0  0  0  0  0  0  0  0  0  0  0
    2.0258  -13.0557   25.5898 O   0  0  0  0  0  0  0  0  0  0  0  0
    1.0993  -13.5956   26.4753 N   0  0  0  0  0  0  0  0  0  0  0  0
    1.7654  -14.5452   27.1380 C   0  0  0  0  0  0  0  0  0  0  0  0
    3.0837  -14.6579   26.6898 C   0  0  0  0  0  0  0  0  0  0  0  0
    4.3361  -15.8468   27.3667 Br  0  0  0  0  0  0  0  0  0  0  0  0
  1  2  2  0
  2  3  1  0
  4  3  1  6
  5  4  1  1
  5  6  1  0
  6  7  1  1
  8  7  1  6
  8  9  1  0
  9 10  1  0
 10 11  1  0
  2 12  1  0
 12 13  1  0
 13 14  1  0
 14 15  2  0
 15 16  1  0
 16 17  1  0
  9  4  1  6
 16 12  2  0
 11  5  1  0
 11  6  1  1
 10  8  1  6
M  END
>  <inspiration_score>  (217) 
0.79

>  <HIPPO Pose ID>  (217) 
1141680

>  <ref_pdb>  (217) 
x0421c

>  <ref_mols>  (217) 
x0421d

>  <HIPPO Compound ID>  (217) 
527600

>  <energy_score>  (217) 
-374.26695

>  <tags>  (217) 
CpKRS_FrAncestor_bulkdock_iter1,CpKRS_FrAncestor_bulkdock_iter1_cluster_best5,fragmenstein_placed,CpKRS_FrAncestor_bulkdock_iter1_exported,BulkDock Fragalysis export

>  <inchikey>  (217) 
YCJWTKPUJSKTIE-UHFFFAOYSA-N

>  <placement_batch>  (217) 
CpKRS_FrAncestor_bulkdock_iter1_cluster_best5

>  <alias>  (217) 
C527600-P14

>  <name>  (217) 
C527600-P14

>  <smiles>  (217) 
O=C(N[C@@H]1[C@H]2[C@H]3C[C@@H]4[C@H]([C@H]32)[C@@H]41)c1oncc1Br

>  <subsites>  (217) 


>  <distance_score>  (217) 
0.702601

$$$$
C527601-P14
     RDKit          3D

 17 21  0  0  0  0  0  0  0  0999 V2000
    5.5772  -13.7671   24.9694 O   0  0  0  0  0  0  0  0  0  0  0  0
    4.5885  -13.1562   24.9519 C   0  0  0  0  0  0  0  0  0  0  0  0
    4.2099  -11.9037   24.1579 N   0  0  0  0  0  0  0  0  0  0  0  0
    4.9935  -11.0822   23.2903 C   0  0  1  0  0  0  0  0  0  0  0  0
    4.1095  -10.6598   22.1339 C   0  0  2  0  0  0  0  0  0  0  0  0
    4.5075   -9.4587   21.3020 C   0  0  2  0  0  0  0  0  0  0  0  0
    5.7928   -8.7401   21.6483 C   0  0  0  0  0  0  0  0  0  0  0  0
    5.7644   -8.5658   23.1542 C   0  0  2  0  0  0  0  0  0  0  0  0
    5.3696   -9.7688   23.9894 C   0  0  1  0  0  0  0  0  0  0  0  0
    4.3457   -8.7189   23.6359 C   0  0  2  0  0  0  0  0  0  0  0  0
    3.5352   -9.2918   22.4463 C   0  0  2  0  0  0  0  0  0  0  0  0
    3.4206  -13.5348   25.7751 C   0  0  0  0  0  0  0  0  0  0  0  0
    2.2035  -12.8142   25.6914 N   0  0  0  0  0  0  0  0  0  0  0  0
    1.3339  -13.3466   26.5214 C   0  0  0  0  0  0  0  0  0  0  0  0
    1.8856  -14.6499   27.4822 S   0  0  0  0  0  0  0  0  0  0  0  0
    3.3870  -14.5639   26.6924 C   0  0  0  0  0  0  0  0  0  0  0  0
    4.5897  -15.7091   27.1118 Cl  0  0  0  0  0  0  0  0  0  0  0  0
  1  2  2  0
  2  3  1  0
  4  3  1  1
  5  4  1  1
  5  6  1  0
  6  7  1  1
  8  7  1  6
  8  9  1  0
  9 10  1  0
 10 11  1  0
  2 12  1  0
 12 13  1  0
 13 14  2  0
 14 15  1  0
 15 16  1  0
 16 17  1  0
  9  4  1  6
 16 12  2  0
 11  5  1  0
 11  6  1  6
 10  8  1  6
M  END
>  <inspiration_score>  (218) 
0.912

>  <HIPPO Pose ID>  (218) 
1141684

>  <ref_pdb>  (218) 
x0421c

>  <ref_mols>  (218) 
x0421d

>  <HIPPO Compound ID>  (218) 
527601

>  <energy_score>  (218) 
-415.453872

>  <tags>  (218) 
CpKRS_FrAncestor_bulkdock_iter1,CpKRS_FrAncestor_bulkdock_iter1_cluster_best5,fragmenstein_placed,CpKRS_FrAncestor_bulkdock_iter1_exported,BulkDock Fragalysis export

>  <inchikey>  (218) 
GQLFYOOTVUJYCD-UHFFFAOYSA-N

>  <placement_batch>  (218) 
CpKRS_FrAncestor_bulkdock_iter1_cluster_best5

>  <alias>  (218) 
C527601-P14

>  <name>  (218) 
C527601-P14

>  <smiles>  (218) 
O=C(N[C@@H]1[C@H]2[C@H]3C[C@@H]4[C@H]([C@H]32)[C@@H]41)c1ncsc1Cl

>  <subsites>  (218) 


>  <distance_score>  (218) 
0.744161

$$$$
LKCONJCRLABVMZ-VHSXEESVSA-N-P13
     RDKit          3D

 17 18  0  0  0  0  0  0  0  0999 V2000
    0.4335  -13.6426   26.1290 C   0  0  0  0  0  0  0  0  0  0  0  0
    1.7320  -14.2935   26.3699 C   0  0  0  0  0  0  0  0  0  0  0  0
    1.9381  -14.8210   27.6137 O   0  0  0  0  0  0  0  0  0  0  0  0
    3.1714  -15.3896   27.5280 C   0  0  0  0  0  0  0  0  0  0  0  0
    3.7571  -15.2777   26.3627 N   0  0  0  0  0  0  0  0  0  0  0  0
    2.8519  -14.5640   25.6069 C   0  0  0  0  0  0  0  0  0  0  0  0
    3.1086  -14.2966   24.1752 C   0  0  0  0  0  0  0  0  0  0  0  0
    4.4229  -13.5605   23.9328 C   0  0  0  0  0  0  0  0  0  0  0  0
    5.4097  -14.1167   23.6503 O   0  0  0  0  0  0  0  0  0  0  0  0
    4.1187  -12.0406   24.0356 N   0  0  0  0  0  0  0  0  0  0  0  0
    4.9430  -10.8942   23.7183 C   0  0  2  0  0  0  0  0  0  0  0  0
    4.3886   -9.6018   24.3176 C   0  0  0  0  0  0  0  0  0  0  0  0
    5.1980   -8.3887   23.8802 C   0  0  0  0  0  0  0  0  0  0  0  0
    5.1859   -8.2760   22.3669 C   0  0  0  0  0  0  0  0  0  0  0  0
    5.7394   -9.5306   21.7147 C   0  0  0  0  0  0  0  0  0  0  0  0
    5.0429  -10.7895   22.1921 C   0  0  2  0  0  0  0  0  0  0  0  0
    3.7653  -10.7386   21.7024 F   0  0  0  0  0  0  0  0  0  0  0  0
  1  2  1  0
  2  3  1  0
  3  4  1  0
  4  5  2  0
  5  6  1  0
  6  7  1  0
  7  8  1  0
  8  9  2  0
  8 10  1  0
 11 10  1  6
 11 12  1  0
 12 13  1  0
 13 14  1  0
 14 15  1  0
 15 16  1  0
 16 17  1  6
  6  2  2  0
 16 11  1  0
M  END
>  <inspiration_score>  (219) 
0.558

>  <HIPPO Pose ID>  (219) 
1147610

>  <ref_pdb>  (219) 
x0421a

>  <ref_mols>  (219) 
x0421c

>  <HIPPO Compound ID>  (219) 
521029

>  <energy_score>  (219) 
-349.504878

>  <tags>  (219) 
CpKRS_FrAncestor_bulkdock_iter1,CpKRS_FrAncestor_bulkdock_iter1_cluster_best5,fragmenstein_placed,CpKRS_FrAncestor_bulkdock_iter1_exported,BulkDock Fragalysis export

>  <inchikey>  (219) 
LKCONJCRLABVMZ-UHFFFAOYSA-N

>  <placement_batch>  (219) 
CpKRS_FrAncestor_bulkdock_iter1_cluster_best5

>  <alias>  (219) 
LKCONJCRLABVMZ-VHSXEESVSA-N-P13

>  <name>  (219) 
LKCONJCRLABVMZ-VHSXEESVSA-N-P13

>  <smiles>  (219) 
Cc1ocnc1CC(=O)N[C@@H]1CCCC[C@@H]1F

>  <subsites>  (219) 


>  <distance_score>  (219) 
0.91347

$$$$
PDXDOEVJQYEASI-CMDGGOBGSA-N-P38
     RDKit          3D

 17 17  0  0  0  0  0  0  0  0999 V2000
    5.6297   -7.7850   24.6544 C   0  0  0  0  0  0  0  0  0  0  0  0
    4.5676   -8.7420   24.1865 C   0  0  0  0  0  0  0  0  0  0  0  0
    2.9949   -8.6627   25.2308 Br  0  0  0  0  0  0  0  0  0  0  0  0
    4.6774   -9.5503   23.1087 C   0  0  0  0  0  0  0  0  0  0  0  0
    5.8128   -9.4597   22.1283 C   0  0  0  0  0  0  0  0  0  0  0  0
    3.6628  -10.5713   22.6822 C   0  0  0  0  0  0  0  0  0  0  0  0
    3.2956  -11.4622   23.7300 N   0  0  0  0  0  0  0  0  0  0  0  0
    4.0488  -12.6651   24.3321 C   0  0  0  0  0  0  0  0  0  0  0  0
    5.1209  -13.0690   24.1177 O   0  0  0  0  0  0  0  0  0  0  0  0
    3.1610  -13.3169   25.3694 C   0  0  0  0  0  0  0  0  0  0  0  0
    3.6581  -14.3052   26.1363 C   0  0  0  0  0  0  0  0  0  0  0  0
    2.9683  -14.9569   27.1589 N   0  0  0  0  0  0  0  0  0  0  0  0
    3.5801  -16.0786   27.8691 C   0  0  0  0  0  0  0  0  0  0  0  0
    1.6398  -14.6380   27.3594 C   0  0  0  0  0  0  0  0  0  0  0  0
    0.9876  -13.7040   26.6646 C   0  0  0  0  0  0  0  0  0  0  0  0
    1.7425  -12.9508   25.6398 C   0  0  0  0  0  0  0  0  0  0  0  0
    1.1775  -12.0299   25.0503 O   0  0  0  0  0  0  0  0  0  0  0  0
  1  2  1  0
  2  3  1  0
  2  4  2  0
  4  5  1  0
  4  6  1  0
  6  7  1  0
  7  8  1  0
  8  9  2  0
  8 10  1  0
 10 11  2  0
 11 12  1  0
 12 13  1  0
 12 14  1  0
 14 15  2  0
 15 16  1  0
 16 17  2  0
 16 10  1  0
M  END
>  <inspiration_score>  (220) 
0.707

>  <HIPPO Pose ID>  (220) 
1161444

>  <ref_pdb>  (220) 
x0421b

>  <ref_mols>  (220) 
x0555a

>  <HIPPO Compound ID>  (220) 
531482

>  <energy_score>  (220) 
-259.854955

>  <tags>  (220) 
CpKRS_FrAncestor_bulkdock_iter1,CpKRS_FrAncestor_bulkdock_iter1_cluster_best5,fragmenstein_placed,CpKRS_FrAncestor_bulkdock_iter1_exported,BulkDock Fragalysis export

>  <inchikey>  (220) 
PDXDOEVJQYEASI-UHFFFAOYSA-N

>  <placement_batch>  (220) 
CpKRS_FrAncestor_bulkdock_iter1_cluster_best5

>  <alias>  (220) 
PDXDOEVJQYEASI-CMDGGOBGSA-N-P38

>  <name>  (220) 
PDXDOEVJQYEASI-CMDGGOBGSA-N-P38

>  <smiles>  (220) 
C/C(Br)=C(/C)CNC(=O)c1cn(C)ccc1=O

>  <subsites>  (220) 


>  <distance_score>  (220) 
0.636576

$$$$
OHDDXSOPZLRSDC-UHFFFAOYSA-N-P64
     RDKit          3D

 17 18  0  0  0  0  0  0  0  0999 V2000
    3.8978  -12.3111   21.9274 O   0  0  0  0  0  0  0  0  0  0  0  0
    4.4305  -11.9174   22.8834 C   0  0  0  0  0  0  0  0  0  0  0  0
    4.7861  -12.6350   24.1890 N   0  0  0  0  0  0  0  0  0  0  0  0
    4.6478  -14.0155   24.5634 C   0  0  0  0  0  0  0  0  0  0  0  0
    3.7012  -14.2441   25.7126 C   0  0  0  0  0  0  0  0  0  0  0  0
    2.4289  -13.6524   25.7397 C   0  0  0  0  0  0  0  0  0  0  0  0
    1.5385  -13.9227   26.7834 C   0  0  0  0  0  0  0  0  0  0  0  0
    1.9049  -14.7946   27.8077 C   0  0  0  0  0  0  0  0  0  0  0  0
    3.1573  -15.3912   27.7858 C   0  0  0  0  0  0  0  0  0  0  0  0
    3.5122  -16.2055   28.7912 F   0  0  0  0  0  0  0  0  0  0  0  0
    4.0518  -15.1287   26.7485 C   0  0  0  0  0  0  0  0  0  0  0  0
    4.9076  -10.5222   22.9335 C   0  0  0  0  0  0  0  0  0  0  0  0
    4.9408   -9.7034   21.8150 C   0  0  0  0  0  0  0  0  0  0  0  0
    5.4493   -8.1353   22.2396 S   0  0  0  0  0  0  0  0  0  0  0  0
    5.7055   -8.6779   23.8248 C   0  0  0  0  0  0  0  0  0  0  0  0
    6.3133   -7.5782   24.9837 Cl  0  0  0  0  0  0  0  0  0  0  0  0
    5.3822   -9.9189   24.1023 N   0  0  0  0  0  0  0  0  0  0  0  0
  1  2  2  0
  2  3  1  0
  3  4  1  0
  4  5  1  0
  5  6  2  0
  6  7  1  0
  7  8  2  0
  8  9  1  0
  9 10  1  0
  9 11  2  0
  2 12  1  0
 12 13  2  0
 13 14  1  0
 14 15  1  0
 15 16  1  0
 15 17  2  0
 11  5  1  0
 17 12  1  0
M  END
>  <inspiration_score>  (221) 
0.629

>  <HIPPO Pose ID>  (221) 
1163944

>  <ref_pdb>  (221) 
x0421c

>  <ref_mols>  (221) 
x0787b

>  <HIPPO Compound ID>  (221) 
534770

>  <energy_score>  (221) 
-91.627375

>  <tags>  (221) 
CpKRS_FrAncestor_bulkdock_iter1,CpKRS_FrAncestor_bulkdock_iter1_cluster_best5,fragmenstein_placed,CpKRS_FrAncestor_bulkdock_iter1_exported,BulkDock Fragalysis export

>  <inchikey>  (221) 
OHDDXSOPZLRSDC-UHFFFAOYSA-N

>  <placement_batch>  (221) 
CpKRS_FrAncestor_bulkdock_iter1_cluster_best5

>  <alias>  (221) 
OHDDXSOPZLRSDC-UHFFFAOYSA-N-P64

>  <name>  (221) 
OHDDXSOPZLRSDC-UHFFFAOYSA-N-P64

>  <smiles>  (221) 
O=C(NCc1cccc(F)c1)c1csc(Cl)n1

>  <subsites>  (221) 


>  <distance_score>  (221) 
0.753933

$$$$
ZNDRXWCVXDOLBB-UHFFFAOYSA-N-P46
     RDKit          3D

 17 18  0  0  0  0  0  0  0  0999 V2000
    2.8914  -15.9869   28.4457 C   0  0  0  0  0  0  0  0  0  0  0  0
    2.7062  -14.9480   27.4714 N   0  0  0  0  0  0  0  0  0  0  0  0
    1.5819  -14.1534   27.5223 C   0  0  0  0  0  0  0  0  0  0  0  0
    1.3945  -13.1689   26.6449 C   0  0  0  0  0  0  0  0  0  0  0  0
    2.4249  -12.8853   25.6874 C   0  0  0  0  0  0  0  0  0  0  0  0
    3.5519  -13.6261   25.5911 C   0  0  0  0  0  0  0  0  0  0  0  0
    4.6825  -13.0977   24.7579 C   0  0  0  0  0  0  0  0  0  0  0  0
    5.7670  -13.0475   25.1780 O   0  0  0  0  0  0  0  0  0  0  0  0
    4.1052  -12.5950   23.4182 N   0  0  0  0  0  0  0  0  0  0  0  0
    4.7189  -11.8461   22.3647 C   0  0  0  0  0  0  0  0  0  0  0  0
    5.1488  -10.4919   22.9113 C   0  0  0  0  0  0  0  0  0  0  0  0
    4.0874   -9.7753   23.7447 C   0  0  0  0  0  0  0  0  0  0  0  0
    4.6631   -8.3825   23.8831 C   0  0  0  0  0  0  0  0  0  0  0  0
    5.4029   -8.1268   22.5732 C   0  0  0  0  0  0  0  0  0  0  0  0
    5.4566   -9.4601   21.8383 C   0  0  0  0  0  0  0  0  0  0  0  0
    3.7522  -14.7502   26.5578 C   0  0  0  0  0  0  0  0  0  0  0  0
    4.7725  -15.4358   26.5769 O   0  0  0  0  0  0  0  0  0  0  0  0
  1  2  1  0
  2  3  1  0
  3  4  2  0
  4  5  1  0
  5  6  2  0
  6  7  1  0
  7  8  2  0
  7  9  1  0
  9 10  1  0
 10 11  1  0
 11 12  1  0
 12 13  1  0
 13 14  1  0
 14 15  1  0
  6 16  1  0
 16 17  2  0
 16  2  1  0
 15 11  1  0
M  END
>  <inspiration_score>  (222) 
0.729

>  <HIPPO Pose ID>  (222) 
1164474

>  <ref_pdb>  (222) 
x0421c

>  <ref_mols>  (222) 
x0502c

>  <HIPPO Compound ID>  (222) 
534890

>  <energy_score>  (222) 
-234.9443

>  <tags>  (222) 
CpKRS_FrAncestor_bulkdock_iter1,CpKRS_FrAncestor_bulkdock_iter1_cluster_best5,fragmenstein_placed,CpKRS_FrAncestor_bulkdock_iter1_exported,BulkDock Fragalysis export

>  <inchikey>  (222) 
ZNDRXWCVXDOLBB-UHFFFAOYSA-N

>  <placement_batch>  (222) 
CpKRS_FrAncestor_bulkdock_iter1_cluster_best5

>  <alias>  (222) 
ZNDRXWCVXDOLBB-UHFFFAOYSA-N-P46

>  <name>  (222) 
ZNDRXWCVXDOLBB-UHFFFAOYSA-N-P46

>  <smiles>  (222) 
Cn1cccc(C(=O)NCC2CCCC2)c1=O

>  <subsites>  (222) 


>  <distance_score>  (222) 
0.570878

$$$$
QQRJAHFFSGIMOZ-NWDGAFQWSA-N-P14
     RDKit          3D

 17 18  0  0  0  0  0  0  0  0999 V2000
   -0.3321  -12.7011   25.6941 C   0  0  0  0  0  0  0  0  0  0  0  0
    0.9748  -13.2656   26.1567 C   0  0  0  0  0  0  0  0  0  0  0  0
    1.0600  -14.0368   27.3061 C   0  0  0  0  0  0  0  0  0  0  0  0
    2.2620  -14.6454   27.6399 C   0  0  0  0  0  0  0  0  0  0  0  0
    3.3637  -14.4456   26.8268 C   0  0  0  0  0  0  0  0  0  0  0  0
    3.2314  -13.6230   25.7116 C   0  0  0  0  0  0  0  0  0  0  0  0
    4.4566  -13.3888   24.8585 C   0  0  0  0  0  0  0  0  0  0  0  0
    4.2671  -12.4331   23.8162 N   0  0  0  0  0  0  0  0  0  0  0  0
    4.1402  -10.9043   23.8758 C   0  0  0  0  0  0  0  0  0  0  0  0
    4.2465  -10.1727   24.7748 O   0  0  0  0  0  0  0  0  0  0  0  0
    3.8604  -10.4012   22.4700 C   0  0  1  0  0  0  0  0  0  0  0  0
    3.6692   -8.8850   22.5133 C   0  0  0  0  0  0  0  0  0  0  0  0
    5.0653   -8.2683   22.4377 C   0  0  0  0  0  0  0  0  0  0  0  0
    5.9811   -9.4228   22.0891 C   0  0  0  0  0  0  0  0  0  0  0  0
    5.0709  -10.5151   21.5776 C   0  0  1  0  0  0  0  0  0  0  0  0
    5.6553  -11.7232   21.6297 F   0  0  0  0  0  0  0  0  0  0  0  0
    2.0422  -13.0474   25.3635 N   0  0  0  0  0  0  0  0  0  0  0  0
  1  2  1  0
  2  3  2  0
  3  4  1  0
  4  5  2  0
  5  6  1  0
  6  7  1  0
  7  8  1  0
  8  9  1  0
  9 10  2  0
 11  9  1  1
 11 12  1  0
 12 13  1  0
 13 14  1  0
 14 15  1  0
 15 16  1  1
  6 17  2  0
 17  2  1  0
 15 11  1  0
M  END
>  <inspiration_score>  (223) 
0.619

>  <HIPPO Pose ID>  (223) 
1165008

>  <ref_pdb>  (223) 
x0421c

>  <ref_mols>  (223) 
x0421d

>  <HIPPO Compound ID>  (223) 
535039

>  <energy_score>  (223) 
-428.711605

>  <tags>  (223) 
CpKRS_FrAncestor_bulkdock_iter1,CpKRS_FrAncestor_bulkdock_iter1_cluster_best5,fragmenstein_placed,CpKRS_FrAncestor_bulkdock_iter1_exported,BulkDock Fragalysis export

>  <inchikey>  (223) 
QQRJAHFFSGIMOZ-UHFFFAOYSA-N

>  <placement_batch>  (223) 
CpKRS_FrAncestor_bulkdock_iter1_cluster_best5

>  <alias>  (223) 
QQRJAHFFSGIMOZ-NWDGAFQWSA-N-P14

>  <name>  (223) 
QQRJAHFFSGIMOZ-NWDGAFQWSA-N-P14

>  <smiles>  (223) 
Cc1cccc(CNC(=O)[C@H]2CCC[C@H]2F)n1

>  <subsites>  (223) 


>  <distance_score>  (223) 
0.943292

$$$$
SKORGOZSAIBCIN-WFVSFCRTSA-N-P2
     RDKit          3D

 18 19  0  0  0  0  0  0  0  0999 V2000
    5.7206   -6.9920   23.2133 H   0  0  0  0  0  0  0  0  0  0  0  0
    5.2636   -7.9745   23.2570 C   0  0  0  0  0  0  0  0  0  0  0  0
    5.4346   -8.8795   22.2110 C   0  0  0  0  0  0  0  0  0  0  0  0
    4.8668  -10.1506   22.2892 C   0  0  0  0  0  0  0  0  0  0  0  0
    4.1139  -10.5171   23.4121 C   0  0  0  0  0  0  0  0  0  0  0  0
    3.5397  -11.8855   23.4579 C   0  0  0  0  0  0  0  0  0  0  0  0
    3.4290  -12.5852   22.4647 O   0  0  0  0  0  0  0  0  0  0  0  0
    3.1925  -12.2012   24.7256 O   0  0  0  0  0  0  0  0  0  0  0  0
    2.8439  -13.5616   24.9592 C   0  0  2  0  0  0  0  0  0  0  0  0
    1.6996  -13.6427   25.9745 C   0  0  0  0  0  0  0  0  0  0  0  0
    1.9628  -14.9376   26.6942 C   0  0  0  0  0  0  0  0  0  0  0  0
    3.4004  -14.9730   26.7663 N   0  0  0  0  0  0  0  0  0  0  0  0
    4.1105  -16.0146   27.4648 C   0  0  0  0  0  0  0  0  0  0  0  0
    3.5056  -16.3106   28.8183 C   0  0  0  0  0  0  0  0  0  0  0  0
    3.9642  -14.3426   25.6541 C   0  0  0  0  0  0  0  0  0  0  0  0
    5.1354  -14.4070   25.3076 O   0  0  0  0  0  0  0  0  0  0  0  0
    3.9255   -9.5932   24.4466 C   0  0  0  0  0  0  0  0  0  0  0  0
    4.5115   -8.3298   24.3746 C   0  0  0  0  0  0  0  0  0  0  0  0
  1  2  1  0
  2  3  2  0
  3  4  1  0
  4  5  2  0
  5  6  1  0
  6  7  2  0
  6  8  1  0
  9  8  1  1
  9 10  1  0
 10 11  1  0
 11 12  1  0
 12 13  1  0
 13 14  1  0
 12 15  1  0
 15 16  2  0
  5 17  1  0
 17 18  2  0
 18  2  1  0
 15  9  1  0
M  ISO  1   1   2
M  END
>  <inspiration_score>  (224) 
0.66

>  <HIPPO Pose ID>  (224) 
1189312

>  <ref_pdb>  (224) 
x0421a

>  <ref_mols>  (224) 
x0501b

>  <HIPPO Compound ID>  (224) 
542889

>  <energy_score>  (224) 
-27.706072

>  <tags>  (224) 
CpKRS_FrAncestor_bulkdock_iter1,CpKRS_FrAncestor_bulkdock_iter1_cluster_best5,fragmenstein_placed,CpKRS_FrAncestor_bulkdock_iter1_exported,BulkDock Fragalysis export

>  <inchikey>  (224) 
SKORGOZSAIBCIN-UHFFFAOYSA-N

>  <placement_batch>  (224) 
CpKRS_FrAncestor_bulkdock_iter1_cluster_best5

>  <alias>  (224) 
SKORGOZSAIBCIN-WFVSFCRTSA-N-P2

>  <name>  (224) 
SKORGOZSAIBCIN-WFVSFCRTSA-N-P2

>  <smiles>  (224) 
[2H]c1ccc(C(=O)OC2CCN(CC)C2=O)cc1

>  <subsites>  (224) 


>  <distance_score>  (224) 
0.911312

$$$$
WHLCIJUGZKPTBY-SECBINFHSA-N-P20
     RDKit          3D

 17 18  0  0  0  0  0  0  0  0999 V2000
    1.4095    7.3850   45.9170 C   0  0  0  0  0  0  0  0  0  0  0  0
    1.8907    6.1153   45.2627 C   0  0  1  0  0  0  0  0  0  0  0  0
    2.6934    6.3515   44.0999 N   0  0  0  0  0  0  0  0  0  0  0  0
    2.9227    5.4816   42.8487 C   0  0  0  0  0  0  0  0  0  0  0  0
    2.4361    4.4728   42.5322 O   0  0  0  0  0  0  0  0  0  0  0  0
    3.9562    6.1076   41.9826 C   0  0  0  0  0  0  0  0  0  0  0  0
    3.9225    7.4022   41.6255 C   0  0  0  0  0  0  0  0  0  0  0  0
    4.8441    8.0012   40.7741 N   0  0  0  0  0  0  0  0  0  0  0  0
    4.8011    9.4360   40.4937 C   0  0  0  0  0  0  0  0  0  0  0  0
    5.7243    7.1760   40.0850 C   0  0  0  0  0  0  0  0  0  0  0  0
    5.8492    5.8611   40.2983 C   0  0  0  0  0  0  0  0  0  0  0  0
    5.0419    5.2695   41.3930 C   0  0  0  0  0  0  0  0  0  0  0  0
    5.3571    4.1812   41.8642 O   0  0  0  0  0  0  0  0  0  0  0  0
    2.7503    5.3065   46.2210 C   0  0  0  0  0  0  0  0  0  0  0  0
    1.9014    4.4796   47.2104 C   0  0  0  0  0  0  0  0  0  0  0  0
    2.8473    3.3099   46.9948 C   0  0  0  0  0  0  0  0  0  0  0  0
    3.3528    3.9693   45.7212 C   0  0  0  0  0  0  0  0  0  0  0  0
  2  1  1  1
  2  3  1  0
  3  4  1  0
  4  5  2  0
  4  6  1  0
  6  7  2  0
  7  8  1  0
  8  9  1  0
  8 10  1  0
 10 11  2  0
 11 12  1  0
 12 13  2  0
  2 14  1  0
 14 15  1  0
 15 16  1  0
 16 17  1  0
 12  6  1  0
 17 14  1  0
M  END
>  <inspiration_score>  (225) 
0.699

>  <HIPPO Pose ID>  (225) 
1192382

>  <ref_pdb>  (225) 
x0421a

>  <ref_mols>  (225) 
x0456a

>  <HIPPO Compound ID>  (225) 
543521

>  <energy_score>  (225) 
-240.714621

>  <tags>  (225) 
CpKRS_FrAncestor_bulkdock_iter1,CpKRS_FrAncestor_bulkdock_iter1_cluster_best5,fragmenstein_placed,CpKRS_FrAncestor_bulkdock_iter1_exported,BulkDock Fragalysis export

>  <inchikey>  (225) 
WHLCIJUGZKPTBY-UHFFFAOYSA-N

>  <placement_batch>  (225) 
CpKRS_FrAncestor_bulkdock_iter1_cluster_best5

>  <alias>  (225) 
WHLCIJUGZKPTBY-SECBINFHSA-N-P20

>  <name>  (225) 
WHLCIJUGZKPTBY-SECBINFHSA-N-P20

>  <smiles>  (225) 
C[C@@H](NC(=O)c1cn(C)ccc1=O)C1CCC1

>  <subsites>  (225) 


>  <distance_score>  (225) 
0.536983

$$$$
C513928-P45
     RDKit          3D

 17 18  0  0  0  0  0  0  0  0999 V2000
    5.0934  -12.0990   22.0949 C   0  0  0  0  0  0  0  0  0  0  0  0
    5.0074  -11.4634   23.4609 C   0  0  2  0  0  0  0  0  0  0  0  0
    4.1962  -12.3089   24.2768 N   0  0  0  0  0  0  0  0  0  0  0  0
    4.5925  -13.4141   25.2802 C   0  0  0  0  0  0  0  0  0  0  0  0
    5.6427  -13.7531   25.6538 O   0  0  0  0  0  0  0  0  0  0  0  0
    3.2927  -14.1395   25.6773 C   0  0  0  0  0  0  0  0  0  0  0  0
    3.6299  -15.4718   26.3653 C   0  0  0  0  0  0  0  0  0  0  0  0
    3.8817  -15.4176   27.8392 C   0  0  0  0  0  0  0  0  0  0  0  0
    2.6197  -15.5199   28.6536 C   0  0  0  0  0  0  0  0  0  0  0  0
    1.6021  -14.4203   28.4904 C   0  0  0  0  0  0  0  0  0  0  0  0
    1.1578  -14.0695   27.0815 C   0  0  0  0  0  0  0  0  0  0  0  0
    2.1860  -13.2874   26.2873 C   0  0  0  0  0  0  0  0  0  0  0  0
    4.5816  -10.0537   23.4149 C   0  0  0  0  0  0  0  0  0  0  0  0
    3.9215   -9.2987   24.3506 C   0  0  0  0  0  0  0  0  0  0  0  0
    4.0052   -7.9972   23.9728 O   0  0  0  0  0  0  0  0  0  0  0  0
    4.6614   -8.0386   22.7814 C   0  0  0  0  0  0  0  0  0  0  0  0
    5.0137   -9.2349   22.3893 N   0  0  0  0  0  0  0  0  0  0  0  0
  2  1  1  6
  2  3  1  0
  3  4  1  0
  4  5  2  0
  4  6  1  0
  6  7  1  0
  7  8  1  0
  8  9  1  0
  9 10  1  0
 10 11  1  0
 11 12  1  0
  2 13  1  0
 13 14  2  0
 14 15  1  0
 15 16  1  0
 16 17  2  0
 12  6  1  0
 17 13  1  0
M  END
>  <inspiration_score>  (226) 
0.59

>  <HIPPO Pose ID>  (226) 
1202780

>  <ref_pdb>  (226) 
x0502b

>  <ref_mols>  (226) 
x0502a

>  <HIPPO Compound ID>  (226) 
513928

>  <energy_score>  (226) 
-155.112807

>  <tags>  (226) 
CpKRS_FrAncestor_bulkdock_iter1,CpKRS_FrAncestor_bulkdock_iter1_cluster_best5,fragmenstein_placed,CpKRS_FrAncestor_bulkdock_iter1_exported,BulkDock Fragalysis export

>  <inchikey>  (226) 
NOZKBIWOPDLDHT-UHFFFAOYSA-N

>  <placement_batch>  (226) 
CpKRS_FrAncestor_bulkdock_iter1_cluster_best5

>  <alias>  (226) 
C513928-P45

>  <name>  (226) 
C513928-P45

>  <smiles>  (226) 
C[C@H](NC(=O)C1CCCCCC1)c1cocn1

>  <subsites>  (226) 


>  <distance_score>  (226) 
0.874847

$$$$
C549300-P2
     RDKit          3D

 17 18  0  0  0  0  0  0  0  0999 V2000
    1.8844  -15.3555   29.1127 C   0  0  0  0  0  0  0  0  0  0  0  0
    1.7033  -15.4223   27.6079 C   0  0  0  0  0  0  0  0  0  0  0  0
    2.7110  -14.7056   26.8510 N   0  0  0  0  0  0  0  0  0  0  0  0
    2.3734  -14.1021   25.5819 C   0  0  0  0  0  0  0  0  0  0  0  0
    3.6868  -13.8641   24.8491 C   0  0  1  0  0  0  0  0  0  0  0  0
    3.9810  -12.4578   24.7281 O   0  0  0  0  0  0  0  0  0  0  0  0
    3.6820  -11.9076   23.5241 C   0  0  0  0  0  0  0  0  0  0  0  0
    3.1265  -12.4398   22.5772 O   0  0  0  0  0  0  0  0  0  0  0  0
    4.2160  -10.5350   23.4553 C   0  0  0  0  0  0  0  0  0  0  0  0
    4.0329   -9.6351   24.5064 C   0  0  0  0  0  0  0  0  0  0  0  0
    4.5591   -8.3476   24.4179 C   0  0  0  0  0  0  0  0  0  0  0  0
    5.2452   -7.9546   23.2693 C   0  0  0  0  0  0  0  0  0  0  0  0
    5.4016   -8.8423   22.2050 C   0  0  0  0  0  0  0  0  0  0  0  0
    4.8879  -10.1347   22.2954 C   0  0  0  0  0  0  0  0  0  0  0  0
    4.7564  -14.5552   25.6805 C   0  0  0  0  0  0  0  0  0  0  0  0
    4.0345  -15.1229   26.8681 C   0  0  0  0  0  0  0  0  0  0  0  0
    4.5497  -15.8697   27.6875 O   0  0  0  0  0  0  0  0  0  0  0  0
  1  2  1  0
  2  3  1  0
  3  4  1  0
  4  5  1  0
  5  6  1  1
  6  7  1  0
  7  8  2  0
  7  9  1  0
  9 10  2  0
 10 11  1  0
 11 12  2  0
 12 13  1  0
 13 14  2  0
  5 15  1  0
 15 16  1  0
 16 17  2  0
 16  3  1  0
 14  9  1  0
M  END
>  <inspiration_score>  (227) 
0.561

>  <HIPPO Pose ID>  (227) 
1206986

>  <ref_pdb>  (227) 
x0502b

>  <ref_mols>  (227) 
x0501b

>  <HIPPO Compound ID>  (227) 
549300

>  <energy_score>  (227) 
-24.077924

>  <tags>  (227) 
CpKRS_FrAncestor_bulkdock_iter1,CpKRS_FrAncestor_bulkdock_iter1_cluster_best5,fragmenstein_placed,CpKRS_FrAncestor_bulkdock_iter1_exported,BulkDock Fragalysis export

>  <inchikey>  (227) 
GHEMYFCDJCBDLE-UHFFFAOYSA-N

>  <placement_batch>  (227) 
CpKRS_FrAncestor_bulkdock_iter1_cluster_best5

>  <alias>  (227) 
C549300-P2

>  <name>  (227) 
C549300-P2

>  <smiles>  (227) 
CCN1C[C@@H](OC(=O)c2ccccc2)CC1=O

>  <subsites>  (227) 


>  <distance_score>  (227) 
0.709327

$$$$
C550792-P46
     RDKit          3D

 18 19  0  0  0  0  0  0  0  0999 V2000
    4.2110  -15.9212   27.4896 C   0  0  0  0  0  0  0  0  0  0  0  0
    3.1952  -14.8936   27.1334 C   0  0  0  0  0  0  0  0  0  0  0  0
    1.9831  -14.6755   27.8582 C   0  0  0  0  0  0  0  0  0  0  0  0
    1.1908  -13.7164   27.2749 C   0  0  0  0  0  0  0  0  0  0  0  0
    1.8722  -13.1064   25.8418 S   0  0  0  0  0  0  0  0  0  0  0  0
    3.3096  -14.0191   26.0622 C   0  0  0  0  0  0  0  0  0  0  0  0
    4.4852  -13.8836   25.1481 C   0  0  0  0  0  0  0  0  0  0  0  0
    4.6420  -12.5396   24.7116 N   0  0  0  0  0  0  0  0  0  0  0  0
    4.4064  -11.9014   23.3242 C   0  0  0  0  0  0  0  0  0  0  0  0
    4.1224  -12.3906   22.3079 O   0  0  0  0  0  0  0  0  0  0  0  0
    4.6480  -10.4257   23.5281 C   0  0  2  0  0  0  0  0  0  0  0  0
    3.4247   -9.8195   24.2193 C   0  0  0  0  0  0  0  0  0  0  0  0
    3.6010   -8.3626   24.6107 C   0  0  0  0  0  0  0  0  0  0  0  0
    5.0248   -7.9780   24.9940 C   0  0  0  0  0  0  0  0  0  0  0  0
    6.0560   -7.9731   23.8584 C   0  0  0  0  0  0  0  0  0  0  0  0
    5.5193   -8.3194   22.4775 C   0  0  0  0  0  0  0  0  0  0  0  0
    5.5572   -7.4994   21.5590 O   0  0  0  0  0  0  0  0  0  0  0  0
    4.9965   -9.7159   22.2284 C   0  0  0  0  0  0  0  0  0  0  0  0
  1  2  1  0
  2  3  1  0
  3  4  2  0
  4  5  1  0
  5  6  1  0
  6  7  1  0
  7  8  1  0
  8  9  1  0
  9 10  2  0
 11  9  1  6
 11 12  1  0
 12 13  1  0
 13 14  1  0
 14 15  1  0
 15 16  1  0
 16 17  2  0
 16 18  1  0
  6  2  2  0
 18 11  1  0
M  END
>  <inspiration_score>  (228) 
0.554

>  <HIPPO Pose ID>  (228) 
1211501

>  <ref_pdb>  (228) 
x0502b

>  <ref_mols>  (228) 
x0502c

>  <HIPPO Compound ID>  (228) 
550792

>  <energy_score>  (228) 
-153.495974

>  <tags>  (228) 
CpKRS_FrAncestor_bulkdock_iter1,CpKRS_FrAncestor_bulkdock_iter1_cluster_best5,fragmenstein_placed,CpKRS_FrAncestor_bulkdock_iter1_exported,BulkDock Fragalysis export

>  <inchikey>  (228) 
JPUDIZLZOUEDJT-UHFFFAOYSA-N

>  <placement_batch>  (228) 
CpKRS_FrAncestor_bulkdock_iter1_cluster_best5

>  <alias>  (228) 
C550792-P46

>  <name>  (228) 
C550792-P46

>  <smiles>  (228) 
Cc1ccsc1CNC(=O)[C@@H]1CCCCC(=O)C1

>  <subsites>  (228) 


>  <distance_score>  (228) 
0.866197

$$$$
C554468-P45
     RDKit          3D

 18 19  0  0  0  0  0  0  0  0999 V2000
    5.4301  -14.1587   25.5221 O   0  0  0  0  0  0  0  0  0  0  0  0
    4.3736  -13.7075   25.3273 C   0  0  0  0  0  0  0  0  0  0  0  0
    3.9055  -12.6804   24.2825 N   0  0  0  0  0  0  0  0  0  0  0  0
    4.6520  -11.9236   23.3221 C   0  0  0  0  0  0  0  0  0  0  0  0
    3.9050  -10.7735   22.6362 C   0  0  2  0  0  0  0  0  0  0  0  0
    4.8472  -10.0111   21.6927 C   0  0  0  0  0  0  0  0  0  0  0  0
    5.4509   -8.6933   22.1508 C   0  0  0  0  0  0  0  0  0  0  0  0
    6.0231   -8.6868   23.5548 C   0  0  0  0  0  0  0  0  0  0  0  0
    4.9708   -8.3382   24.5796 C   0  0  0  0  0  0  0  0  0  0  0  0
    3.8801   -9.3644   24.7824 C   0  0  0  0  0  0  0  0  0  0  0  0
    3.1238   -9.8783   23.5810 C   0  0  0  0  0  0  0  0  0  0  0  0
    2.5775   -8.8356   22.9041 F   0  0  0  0  0  0  0  0  0  0  0  0
    2.0597  -10.6025   24.0389 F   0  0  0  0  0  0  0  0  0  0  0  0
    3.2459  -14.0958   26.1955 C   0  0  0  0  0  0  0  0  0  0  0  0
    3.2833  -15.0788   27.2172 C   0  0  0  0  0  0  0  0  0  0  0  0
    2.0563  -15.0018   27.8107 C   0  0  0  0  0  0  0  0  0  0  0  0
    1.3042  -14.0667   27.1824 O   0  0  0  0  0  0  0  0  0  0  0  0
    2.0367  -13.4974   26.1523 N   0  0  0  0  0  0  0  0  0  0  0  0
  1  2  2  0
  2  3  1  0
  3  4  1  0
  5  4  1  1
  5  6  1  0
  6  7  1  0
  7  8  1  0
  8  9  1  0
  9 10  1  0
 10 11  1  0
 11 12  1  0
 11 13  1  0
  2 14  1  0
 14 15  1  0
 15 16  2  0
 16 17  1  0
 17 18  1  0
 11  5  1  0
 18 14  2  0
M  END
>  <inspiration_score>  (229) 
0.754

>  <HIPPO Pose ID>  (229) 
1213975

>  <ref_pdb>  (229) 
x0502c

>  <ref_mols>  (229) 
x0502a

>  <HIPPO Compound ID>  (229) 
554468

>  <energy_score>  (229) 
-148.713647

>  <tags>  (229) 
CpKRS_FrAncestor_bulkdock_iter1,CpKRS_FrAncestor_bulkdock_iter1_cluster_best5,fragmenstein_placed,CpKRS_FrAncestor_bulkdock_iter1_exported,BulkDock Fragalysis export

>  <inchikey>  (229) 
FUGBCBIGPASYDF-UHFFFAOYSA-N

>  <placement_batch>  (229) 
CpKRS_FrAncestor_bulkdock_iter1_cluster_best5

>  <alias>  (229) 
C554468-P45

>  <name>  (229) 
C554468-P45

>  <smiles>  (229) 
O=C(NC[C@@H]1CCCCCC1(F)F)c1ccon1

>  <subsites>  (229) 


>  <distance_score>  (229) 
0.614026

$$$$
C558761-P13
     RDKit          3D

 18 20  0  0  0  0  0  0  0  0999 V2000
    0.4298  -14.8135   27.8385 C   0  0  0  0  0  0  0  0  0  0  0  0
    1.3804  -14.3700   26.7909 C   0  0  0  0  0  0  0  0  0  0  0  0
    2.6623  -14.7639   26.8231 C   0  0  0  0  0  0  0  0  0  0  0  0
    3.6283  -14.1549   25.9527 C   0  0  0  0  0  0  0  0  0  0  0  0
    3.2506  -13.2082   25.0786 C   0  0  0  0  0  0  0  0  0  0  0  0
    4.3229  -12.3482   24.4902 C   0  0  0  0  0  0  0  0  0  0  0  0
    5.4217  -12.7195   24.3800 O   0  0  0  0  0  0  0  0  0  0  0  0
    3.7015  -10.9656   24.2040 N   0  0  0  0  0  0  0  0  0  0  0  0
    4.2711   -9.8036   23.6447 C   0  0  1  0  0  0  0  0  0  0  0  0
    5.4406   -9.1990   24.4097 C   0  0  0  0  0  0  0  0  0  0  0  0
    6.1231   -8.3318   23.3497 C   0  0  0  0  0  0  0  0  0  0  0  0
    5.9685   -9.1286   22.0808 C   0  0  2  0  0  0  0  0  0  0  0  0
    4.7413   -9.0446   21.2294 C   0  0  0  0  0  0  0  0  0  0  0  0
    4.8342  -10.0825   22.2907 C   0  0  2  0  0  0  0  0  0  0  0  0
    1.7976  -12.9526   24.8720 C   0  0  0  0  0  0  0  0  0  0  0  0
    1.4191  -12.2197   23.9581 O   0  0  0  0  0  0  0  0  0  0  0  0
    0.9272  -13.5053   25.8014 N   0  0  0  0  0  0  0  0  0  0  0  0
   -0.4907  -13.1904   25.6654 C   0  0  0  0  0  0  0  0  0  0  0  0
  1  2  1  0
  2  3  2  0
  3  4  1  0
  4  5  2  0
  5  6  1  0
  6  7  2  0
  6  8  1  0
  9  8  1  1
  9 10  1  0
 10 11  1  0
 12 11  1  1
 12 13  1  0
 14 13  1  6
  5 15  1  0
 15 16  2  0
 15 17  1  0
 17 18  1  0
 17  2  1  0
 14  9  1  0
 14 12  1  0
M  END
>  <inspiration_score>  (230) 
0.591

>  <HIPPO Pose ID>  (230) 
1227487

>  <ref_pdb>  (230) 
x0421d

>  <ref_mols>  (230) 
x0421c

>  <HIPPO Compound ID>  (230) 
558761

>  <energy_score>  (230) 
-287.983606

>  <tags>  (230) 
CpKRS_FrAncestor_bulkdock_iter1,CpKRS_FrAncestor_bulkdock_iter1_cluster_best5,fragmenstein_placed,CpKRS_FrAncestor_bulkdock_iter1_exported,BulkDock Fragalysis export

>  <inchikey>  (230) 
HLSZJAWVQKZTGO-UHFFFAOYSA-N

>  <placement_batch>  (230) 
CpKRS_FrAncestor_bulkdock_iter1_cluster_best5

>  <alias>  (230) 
C558761-P13

>  <name>  (230) 
C558761-P13

>  <smiles>  (230) 
Cc1ccc(C(=O)N[C@H]2CC[C@@H]3C[C@@H]32)c(=O)n1C

>  <subsites>  (230) 


>  <distance_score>  (230) 
0.99068

$$$$
C559449-P11
     RDKit          3D

 18 22  0  0  0  0  0  0  0  0999 V2000
    5.6541  -13.8385   25.3167 O   0  0  0  0  0  0  0  0  0  0  0  0
    4.6164  -13.3352   25.1770 C   0  0  0  0  0  0  0  0  0  0  0  0
    4.2452  -11.9767   24.5762 N   0  0  0  0  0  0  0  0  0  0  0  0
    5.0685  -10.9181   24.1105 C   0  0  1  0  0  0  0  0  0  0  0  0
    5.3602  -10.9748   22.6217 C   0  0  2  0  0  0  0  0  0  0  0  0
    5.9218   -9.6938   22.0044 C   0  0  2  0  0  0  0  0  0  0  0  0
    6.0841   -8.4536   22.8827 C   0  0  0  0  0  0  0  0  0  0  0  0
    4.8031   -8.3582   23.6835 C   0  0  2  0  0  0  0  0  0  0  0  0
    4.2931   -9.6207   24.3191 C   0  0  1  0  0  0  0  0  0  0  0  0
    3.7399   -9.1720   22.9819 C   0  0  2  0  0  0  0  0  0  0  0  0
    4.4563  -10.0148   21.9028 C   0  0  2  0  0  0  0  0  0  0  0  0
    3.3318  -13.9605   25.7125 C   0  0  0  0  0  0  0  0  0  0  0  0
    2.1829  -13.2589   25.3925 N   0  0  0  0  0  0  0  0  0  0  0  0
    1.0226  -13.7039   25.9164 C   0  0  0  0  0  0  0  0  0  0  0  0
    0.9358  -14.7959   26.7567 C   0  0  0  0  0  0  0  0  0  0  0  0
    2.1054  -15.4701   27.0956 C   0  0  0  0  0  0  0  0  0  0  0  0
    3.3327  -15.0448   26.5836 C   0  0  0  0  0  0  0  0  0  0  0  0
    4.7377  -15.8514   27.1504 Cl  0  0  0  0  0  0  0  0  0  0  0  0
  1  2  2  0
  2  3  1  0
  4  3  1  6
  5  4  1  1
  5  6  1  0
  6  7  1  1
  8  7  1  6
  8  9  1  0
  9 10  1  0
 10 11  1  0
  2 12  1  0
 12 13  2  0
 13 14  1  0
 14 15  2  0
 15 16  1  0
 16 17  2  0
 17 18  1  0
  9  4  1  6
 17 12  1  0
 11  5  1  0
 11  6  1  6
 10  8  1  6
M  END
>  <inspiration_score>  (231) 
0.806

>  <HIPPO Pose ID>  (231) 
1229908

>  <ref_pdb>  (231) 
x0421d

>  <ref_mols>  (231) 
x0421a

>  <HIPPO Compound ID>  (231) 
559449

>  <energy_score>  (231) 
-380.190105

>  <tags>  (231) 
CpKRS_FrAncestor_bulkdock_iter1,CpKRS_FrAncestor_bulkdock_iter1_cluster_best5,fragmenstein_placed,CpKRS_FrAncestor_bulkdock_iter1_exported,BulkDock Fragalysis export

>  <inchikey>  (231) 
SOLIOYQLNKHVEI-UHFFFAOYSA-N

>  <placement_batch>  (231) 
CpKRS_FrAncestor_bulkdock_iter1_cluster_best5

>  <alias>  (231) 
C559449-P11

>  <name>  (231) 
C559449-P11

>  <smiles>  (231) 
O=C(N[C@@H]1[C@H]2[C@H]3C[C@@H]4[C@H]([C@H]32)[C@@H]41)c1ncccc1Cl

>  <subsites>  (231) 


>  <distance_score>  (231) 
0.865999

$$$$
C559464-P20
     RDKit          3D

 18 22  0  0  0  0  0  0  0  0999 V2000
    4.9326    9.5809   40.6446 C   0  0  0  0  0  0  0  0  0  0  0  0
    4.9363    8.0844   40.6860 C   0  0  0  0  0  0  0  0  0  0  0  0
    5.5168    7.3659   39.6404 C   0  0  0  0  0  0  0  0  0  0  0  0
    5.5399    5.9773   39.6994 C   0  0  0  0  0  0  0  0  0  0  0  0
    4.9910    5.3430   40.8026 C   0  0  0  0  0  0  0  0  0  0  0  0
    4.4249    6.1328   41.8008 C   0  0  0  0  0  0  0  0  0  0  0  0
    4.0910    5.4912   43.1166 C   0  0  0  0  0  0  0  0  0  0  0  0
    4.1355    4.3241   43.2019 O   0  0  0  0  0  0  0  0  0  0  0  0
    3.8281    6.5719   44.2042 N   0  0  0  0  0  0  0  0  0  0  0  0
    3.6607    6.4429   45.6368 C   0  0  1  0  0  0  0  0  0  0  0  0
    2.2814    6.9522   46.0750 C   0  0  1  0  0  0  0  0  0  0  0  0
    1.1266    6.1346   45.6176 C   0  0  1  0  0  0  0  0  0  0  0  0
    1.4402    4.8826   44.8457 C   0  0  0  0  0  0  0  0  0  0  0  0
    2.5069    4.1440   45.6464 C   0  0  1  0  0  0  0  0  0  0  0  0
    3.6778    4.9817   46.0742 C   0  0  2  0  0  0  0  0  0  0  0  0
    2.5334    4.6958   47.0358 C   0  0  1  0  0  0  0  0  0  0  0  0
    1.6241    5.9426   47.0135 C   0  0  1  0  0  0  0  0  0  0  0  0
    4.3997    7.4948   41.7805 N   0  0  0  0  0  0  0  0  0  0  0  0
  1  2  1  0
  2  3  2  0
  3  4  1  0
  4  5  2  0
  5  6  1  0
  6  7  1  0
  7  8  2  0
  7  9  1  0
 10  9  1  6
 11 10  1  6
 11 12  1  0
 12 13  1  6
 14 13  1  6
 14 15  1  0
 15 16  1  0
 16 17  1  0
  6 18  2  0
 18  2  1  0
 15 10  1  6
 17 11  1  0
 17 12  1  6
 16 14  1  6
M  END
>  <inspiration_score>  (232) 
0.748

>  <HIPPO Pose ID>  (232) 
1229965

>  <ref_pdb>  (232) 
x0421d

>  <ref_mols>  (232) 
x0456a

>  <HIPPO Compound ID>  (232) 
559464

>  <energy_score>  (232) 
-376.082088

>  <tags>  (232) 
CpKRS_FrAncestor_bulkdock_iter1,CpKRS_FrAncestor_bulkdock_iter1_cluster_best5,fragmenstein_placed,CpKRS_FrAncestor_bulkdock_iter1_exported,BulkDock Fragalysis export

>  <inchikey>  (232) 
GXZMXLAAQLPKRT-UHFFFAOYSA-N

>  <placement_batch>  (232) 
CpKRS_FrAncestor_bulkdock_iter1_cluster_best5

>  <alias>  (232) 
C559464-P20

>  <name>  (232) 
C559464-P20

>  <smiles>  (232) 
Cc1cccc(C(=O)N[C@H]2[C@H]3[C@H]4C[C@@H]5[C@H]([C@H]43)[C@@H]52)n1

>  <subsites>  (232) 


>  <distance_score>  (232) 
0.838206

$$$$
C552171-P12
     RDKit          3D

 18 20  0  0  0  0  0  0  0  0999 V2000
    4.8000  -16.9944   25.7037 C   0  0  0  0  0  0  0  0  0  0  0  0
    4.6717  -15.8611   26.7141 C   0  0  0  0  0  0  0  0  0  0  0  0
    3.4984  -14.9867   26.4197 C   0  0  0  0  0  0  0  0  0  0  0  0
    2.2008  -15.1767   26.9900 C   0  0  0  0  0  0  0  0  0  0  0  0
    1.2321  -14.3562   26.6020 N   0  0  0  0  0  0  0  0  0  0  0  0
    1.8792  -13.2719   25.5425 S   0  0  0  0  0  0  0  0  0  0  0  0
    3.4787  -13.8859   25.5734 C   0  0  0  0  0  0  0  0  0  0  0  0
    4.5710  -13.3061   24.7831 C   0  0  0  0  0  0  0  0  0  0  0  0
    5.5460  -13.9177   24.6042 O   0  0  0  0  0  0  0  0  0  0  0  0
    4.1811  -11.8948   24.3166 N   0  0  0  0  0  0  0  0  0  0  0  0
    4.8669  -10.9750   23.4539 C   0  0  1  0  0  0  0  0  0  0  0  0
    3.9712  -10.5305   22.2889 C   0  0  0  0  0  0  0  0  0  0  0  0
    4.2134   -9.0666   22.1212 C   0  0  1  0  0  0  0  0  0  0  0  0
    5.0403   -8.5650   23.2639 C   0  0  1  0  0  0  0  0  0  0  0  0
    5.2937   -9.6958   24.1983 C   0  0  0  0  0  0  0  0  0  0  0  0
    5.5751   -8.5438   21.8869 C   0  0  0  0  0  0  0  0  0  0  0  0
    6.5722   -9.3856   21.4856 F   0  0  0  0  0  0  0  0  0  0  0  0
    5.7269   -7.3451   21.2382 F   0  0  0  0  0  0  0  0  0  0  0  0
  1  2  1  0
  2  3  1  0
  3  4  1  0
  4  5  2  0
  5  6  1  0
  6  7  1  0
  7  8  1  0
  8  9  2  0
  8 10  1  0
 11 10  1  1
 11 12  1  0
 13 12  1  1
 13 14  1  0
 14 15  1  1
 14 16  1  0
 16 17  1  0
 16 18  1  0
  7  3  2  0
 15 11  1  0
 16 13  1  0
M  END
>  <inspiration_score>  (233) 
0.697

>  <HIPPO Pose ID>  (233) 
1255052

>  <ref_pdb>  (233) 
x0421d

>  <ref_mols>  (233) 
x0421b

>  <HIPPO Compound ID>  (233) 
552171

>  <energy_score>  (233) 
-315.857666

>  <tags>  (233) 
CpKRS_FrAncestor_bulkdock_iter1,CpKRS_FrAncestor_bulkdock_iter1_cluster_best5,fragmenstein_placed,CpKRS_FrAncestor_bulkdock_iter1_exported,BulkDock Fragalysis export

>  <inchikey>  (233) 
JEXSDXRCCLDZAL-UHFFFAOYSA-N

>  <placement_batch>  (233) 
CpKRS_FrAncestor_bulkdock_iter1_cluster_best5

>  <alias>  (233) 
C552171-P12

>  <name>  (233) 
C552171-P12

>  <smiles>  (233) 
CCc1cnsc1C(=O)N[C@@H]1C[C@@H]2[C@H](C1)C2(F)F

>  <subsites>  (233) 


>  <distance_score>  (233) 
0.582338

$$$$
NAGZRNQYZFSVIG-GXSJLCMTSA-N-P44
     RDKit          3D

 18 20  0  0  0  0  0  0  0  0999 V2000
  -13.8342  -17.6411   43.4302 C   0  0  0  0  0  0  0  0  0  0  0  0
  -12.4482  -17.4731   44.0440 C   0  0  1  0  0  0  0  0  0  0  0  0
  -11.5458  -16.5816   43.1985 C   0  0  0  0  0  0  0  0  0  0  0  0
  -11.9684  -15.1666   43.5662 C   0  0  0  0  0  0  0  0  0  0  0  0
  -12.3771  -15.2437   45.0396 C   0  0  2  0  0  0  0  0  0  0  0  0
  -11.4157  -14.5801   45.8775 N   0  0  0  0  0  0  0  0  0  0  0  0
  -11.2028  -13.0812   46.1633 C   0  0  0  0  0  0  0  0  0  0  0  0
  -11.7230  -12.1440   45.7059 O   0  0  0  0  0  0  0  0  0  0  0  0
  -10.1658  -12.9537   47.1906 C   0  0  0  0  0  0  0  0  0  0  0  0
   -9.9203  -13.7640   48.2890 C   0  0  0  0  0  0  0  0  0  0  0  0
   -8.7968  -13.3334   49.0437 C   0  0  0  0  0  0  0  0  0  0  0  0
   -8.2353  -12.2028   48.4877 C   0  0  0  0  0  0  0  0  0  0  0  0
   -9.0565  -11.6460   47.1146 S   0  0  0  0  0  0  0  0  0  0  0  0
   -7.0471  -11.5229   49.0747 C   0  0  0  0  0  0  0  0  0  0  0  0
   -6.3640  -12.4736   50.0745 C   0  0  0  0  0  0  0  0  0  0  0  0
   -7.3274  -13.0585   50.9707 O   0  0  0  0  0  0  0  0  0  0  0  0
   -8.2114  -13.9595   50.2710 C   0  0  0  0  0  0  0  0  0  0  0  0
  -12.5026  -16.7338   45.3810 C   0  0  0  0  0  0  0  0  0  0  0  0
  2  1  1  6
  2  3  1  0
  3  4  1  0
  4  5  1  0
  5  6  1  1
  6  7  1  0
  7  8  2  0
  7  9  1  0
  9 10  2  0
 10 11  1  0
 11 12  2  0
 12 13  1  0
 12 14  1  0
 14 15  1  0
 15 16  1  0
 16 17  1  0
  5 18  1  0
 18  2  1  0
 13  9  1  0
 17 11  1  0
M  END
>  <inspiration_score>  (234) 
0.735

>  <HIPPO Pose ID>  (234) 
1267207

>  <ref_pdb>  (234) 
x0502b

>  <ref_mols>  (234) 
x0502b

>  <HIPPO Compound ID>  (234) 
762649

>  <energy_score>  (234) 
-197.716967

>  <tags>  (234) 
CpKRS_FrAncestor_bulkdock_iter1,CpKRS_FrAncestor_bulkdock_iter1_cluster_best5,fragmenstein_placed,CpKRS_FrAncestor_bulkdock_iter1_exported,BulkDock Fragalysis export

>  <inchikey>  (234) 
NAGZRNQYZFSVIG-UHFFFAOYSA-N

>  <placement_batch>  (234) 
CpKRS_FrAncestor_bulkdock_iter1_cluster_best5

>  <alias>  (234) 
NAGZRNQYZFSVIG-GXSJLCMTSA-N-P44

>  <name>  (234) 
NAGZRNQYZFSVIG-GXSJLCMTSA-N-P44

>  <smiles>  (234) 
C[C@H]1CC[C@@H](NC(=O)c2cc3c(s2)CCOC3)C1

>  <subsites>  (234) 


>  <distance_score>  (234) 
0.851991

$$$$
GHQUALXVFOLHIW-UHFFFAOYSA-N-P26
     RDKit          3D

 18 19  0  0  0  0  0  0  0  0999 V2000
    5.0283    9.9206   37.4575 C   0  0  0  0  0  0  0  0  0  0  0  0
    3.7633   10.3180   38.1917 C   0  0  0  0  0  0  0  0  0  0  0  0
    3.1614   11.6191   37.6706 C   0  0  0  0  0  0  0  0  0  0  0  0
    4.0685   10.4918   39.6632 C   0  0  0  0  0  0  0  0  0  0  0  0
    4.4233   11.5556   40.1571 O   0  0  0  0  0  0  0  0  0  0  0  0
    3.8247    9.3943   40.4424 N   0  0  0  0  0  0  0  0  0  0  0  0
    2.4775    9.2330   40.9272 C   0  0  0  0  0  0  0  0  0  0  0  0
    2.4618    9.0627   42.4220 C   0  0  0  0  0  0  0  0  0  0  0  0
    2.5879    7.6016   42.7839 C   0  0  0  0  0  0  0  0  0  0  0  0
    3.9277    7.0087   42.6081 N   0  0  0  0  0  0  0  0  0  0  0  0
    3.9254    5.7330   43.2527 C   0  0  0  0  0  0  0  0  0  0  0  0
    4.2508    4.5306   42.6088 C   0  0  0  0  0  0  0  0  0  0  0  0
    4.3262    3.3274   43.3195 C   0  0  0  0  0  0  0  0  0  0  0  0
    4.0467    3.2948   44.6820 C   0  0  0  0  0  0  0  0  0  0  0  0
    3.6673    4.4553   45.3380 C   0  0  0  0  0  0  0  0  0  0  0  0
    3.6376    5.6605   44.6360 C   0  0  0  0  0  0  0  0  0  0  0  0
    4.4562    7.0399   41.2140 C   0  0  0  0  0  0  0  0  0  0  0  0
    4.8894    8.4427   40.7581 C   0  0  0  0  0  0  0  0  0  0  0  0
  1  2  1  0
  2  3  1  0
  2  4  1  0
  4  5  2  0
  4  6  1  0
  6  7  1  0
  7  8  1  0
  8  9  1  0
  9 10  1  0
 10 11  1  0
 11 12  2  0
 12 13  1  0
 13 14  2  0
 14 15  1  0
 15 16  2  0
 10 17  1  0
 17 18  1  0
 18  6  1  0
 16 11  1  0
M  END
>  <inspiration_score>  (235) 
0.575

>  <HIPPO Pose ID>  (235) 
1280326

>  <ref_pdb>  (235) 
x0504c

>  <ref_mols>  (235) 
x0479b

>  <HIPPO Compound ID>  (235) 
768445

>  <energy_score>  (235) 
-117.636289

>  <tags>  (235) 
CpKRS_FrAncestor_bulkdock_iter1,CpKRS_FrAncestor_bulkdock_iter1_cluster_best5,fragmenstein_placed,CpKRS_FrAncestor_bulkdock_iter1_exported,BulkDock Fragalysis export

>  <inchikey>  (235) 
GHQUALXVFOLHIW-UHFFFAOYSA-N

>  <placement_batch>  (235) 
CpKRS_FrAncestor_bulkdock_iter1_cluster_best5

>  <alias>  (235) 
GHQUALXVFOLHIW-UHFFFAOYSA-N-P26

>  <name>  (235) 
GHQUALXVFOLHIW-UHFFFAOYSA-N-P26

>  <smiles>  (235) 
CC(C)C(=O)N1CCCN(c2ccccc2)CC1

>  <subsites>  (235) 


>  <distance_score>  (235) 
0.736963

$$$$
LECGJCOUNZDKKJ-UHFFFAOYSA-N-P49
     RDKit          3D

 18 19  0  0  0  0  0  0  0  0999 V2000
    4.2732  -16.6994   25.7650 C   0  0  0  0  0  0  0  0  0  0  0  0
    4.4132  -15.4016   26.3455 O   0  0  0  0  0  0  0  0  0  0  0  0
    3.1803  -14.8934   26.6562 C   0  0  0  0  0  0  0  0  0  0  0  0
    2.5359  -15.3905   27.7978 C   0  0  0  0  0  0  0  0  0  0  0  0
    1.3077  -14.8721   28.2013 C   0  0  0  0  0  0  0  0  0  0  0  0
    0.7092  -13.8648   27.4521 C   0  0  0  0  0  0  0  0  0  0  0  0
    1.3403  -13.3677   26.3143 C   0  0  0  0  0  0  0  0  0  0  0  0
    2.6070  -13.8417   25.9337 C   0  0  0  0  0  0  0  0  0  0  0  0
    3.2810  -13.1867   24.7634 C   0  0  0  0  0  0  0  0  0  0  0  0
    3.7932  -13.8351   23.9422 O   0  0  0  0  0  0  0  0  0  0  0  0
    3.0883  -11.6564   24.8550 N   0  0  0  0  0  0  0  0  0  0  0  0
    3.4009  -10.6192   23.9128 C   0  0  1  0  0  0  0  0  0  0  0  0
    4.1115   -9.4253   24.5539 C   0  0  0  0  0  0  0  0  0  0  0  0
    4.7889   -8.7691   23.3836 C   0  0  0  0  0  0  0  0  0  0  0  0
    5.3257   -7.6741   23.3956 O   0  0  0  0  0  0  0  0  0  0  0  0
    4.7040   -9.6373   22.3056 N   0  0  0  0  0  0  0  0  0  0  0  0
    5.5111   -9.4330   21.1448 C   0  0  0  0  0  0  0  0  0  0  0  0
    4.3131  -10.9617   22.7460 C   0  0  0  0  0  0  0  0  0  0  0  0
  1  2  1  0
  2  3  1  0
  3  4  2  0
  4  5  1  0
  5  6  2  0
  6  7  1  0
  7  8  2  0
  8  9  1  0
  9 10  2  0
  9 11  1  0
 12 11  1  1
 12 13  1  0
 13 14  1  0
 14 15  2  0
 14 16  1  0
 16 17  1  0
 16 18  1  0
  8  3  1  0
 18 12  1  0
M  END
>  <inspiration_score>  (236) 
0.567

>  <HIPPO Pose ID>  (236) 
1282012

>  <ref_pdb>  (236) 
x0504c

>  <ref_mols>  (236) 
x0504b

>  <HIPPO Compound ID>  (236) 
768860

>  <energy_score>  (236) 
-215.792576

>  <tags>  (236) 
CpKRS_FrAncestor_bulkdock_iter1,CpKRS_FrAncestor_bulkdock_iter1_cluster_best5,fragmenstein_placed,CpKRS_FrAncestor_bulkdock_iter1_exported,BulkDock Fragalysis export

>  <inchikey>  (236) 
LECGJCOUNZDKKJ-UHFFFAOYSA-N

>  <placement_batch>  (236) 
CpKRS_FrAncestor_bulkdock_iter1_cluster_best5

>  <alias>  (236) 
LECGJCOUNZDKKJ-UHFFFAOYSA-N-P49

>  <name>  (236) 
LECGJCOUNZDKKJ-UHFFFAOYSA-N-P49

>  <smiles>  (236) 
COc1ccccc1C(=O)NC1CC(=O)N(C)C1

>  <subsites>  (236) 


>  <distance_score>  (236) 
0.886988

$$$$
C776567-P1
     RDKit          3D

 18 20  0  0  0  0  0  0  0  0999 V2000
    2.7789  -11.1203   25.4859 O   0  0  0  0  0  0  0  0  0  0  0  0
    3.4370  -11.3858   24.5011 C   0  0  0  0  0  0  0  0  0  0  0  0
    3.6489  -12.6031   23.9769 O   0  0  0  0  0  0  0  0  0  0  0  0
    3.2605  -13.7468   24.7175 C   0  0  2  0  0  0  0  0  0  0  0  0
    1.8394  -13.8287   25.2836 C   0  0  0  0  0  0  0  0  0  0  0  0
    1.9351  -14.9533   26.2792 C   0  0  0  0  0  0  0  0  0  0  0  0
    3.2881  -14.8842   26.7702 N   0  0  0  0  0  0  0  0  0  0  0  0
    3.7424  -15.7359   27.8166 C   0  0  0  0  0  0  0  0  0  0  0  0
    2.9177  -16.9066   28.2564 C   0  0  0  0  0  0  0  0  0  0  0  0
    3.0587  -15.7280   29.1604 C   0  0  0  0  0  0  0  0  0  0  0  0
    4.1398  -14.2659   25.8477 C   0  0  0  0  0  0  0  0  0  0  0  0
    5.3619  -14.2268   25.8698 O   0  0  0  0  0  0  0  0  0  0  0  0
    4.1271  -10.3551   23.6964 C   0  0  0  0  0  0  0  0  0  0  0  0
    4.4560  -10.5733   22.3559 C   0  0  0  0  0  0  0  0  0  0  0  0
    5.0388   -9.5498   21.6144 C   0  0  0  0  0  0  0  0  0  0  0  0
    5.3205   -8.3223   22.2103 C   0  0  0  0  0  0  0  0  0  0  0  0
    5.0348   -8.1144   23.5570 C   0  0  0  0  0  0  0  0  0  0  0  0
    4.4189   -9.1230   24.2956 C   0  0  0  0  0  0  0  0  0  0  0  0
  1  2  2  0
  2  3  1  0
  4  3  1  1
  4  5  1  0
  5  6  1  0
  6  7  1  0
  7  8  1  0
  8  9  1  0
  9 10  1  0
  7 11  1  0
 11 12  2  0
  2 13  1  0
 13 14  2  0
 14 15  1  0
 15 16  2  0
 16 17  1  0
 17 18  2  0
 11  4  1  0
 18 13  1  0
 10  8  1  0
M  END
>  <inspiration_score>  (237) 
0.673

>  <HIPPO Pose ID>  (237) 
1303578

>  <ref_pdb>  (237) 
x0759b

>  <ref_mols>  (237) 
x0501a

>  <HIPPO Compound ID>  (237) 
776567

>  <energy_score>  (237) 
-24.195144

>  <tags>  (237) 
CpKRS_FrAncestor_bulkdock_iter1,CpKRS_FrAncestor_bulkdock_iter1_cluster_best5,fragmenstein_placed,CpKRS_FrAncestor_bulkdock_iter1_exported,BulkDock Fragalysis export

>  <inchikey>  (237) 
SOZXIZPWHVEPCQ-UHFFFAOYSA-N

>  <placement_batch>  (237) 
CpKRS_FrAncestor_bulkdock_iter1_cluster_best5

>  <alias>  (237) 
C776567-P1

>  <name>  (237) 
C776567-P1

>  <smiles>  (237) 
O=C(O[C@@H]1CCN(C2CC2)C1=O)c1ccccc1

>  <subsites>  (237) 


>  <distance_score>  (237) 
0.969786

$$$$
C776661-P61
     RDKit          3D

 18 19  0  0  0  0  0  0  0  0999 V2000
    4.7178  -16.0237   27.5521 C   0  0  0  0  0  0  0  0  0  0  0  0
    3.4668  -15.2368   27.5425 C   0  0  0  0  0  0  0  0  0  0  0  0
    2.5990  -15.3415   28.5584 N   0  0  0  0  0  0  0  0  0  0  0  0
    1.6210  -14.4977   28.2185 N   0  0  0  0  0  0  0  0  0  0  0  0
    1.7955  -13.8878   27.0077 C   0  0  0  0  0  0  0  0  0  0  0  0
    0.7948  -12.9533   26.4456 C   0  0  0  0  0  0  0  0  0  0  0  0
    3.0359  -14.3142   26.5527 C   0  0  0  0  0  0  0  0  0  0  0  0
    3.7714  -13.9027   25.3683 C   0  0  0  0  0  0  0  0  0  0  0  0
    4.9536  -14.1671   25.1779 O   0  0  0  0  0  0  0  0  0  0  0  0
    3.0295  -13.1081   24.5406 O   0  0  0  0  0  0  0  0  0  0  0  0
    3.7164  -12.6150   23.3846 C   0  0  0  0  0  0  0  0  0  0  0  0
    4.6497  -11.4150   23.7016 C   0  0  1  0  0  0  0  0  0  0  0  0
    5.1736  -10.8637   22.4039 C   0  0  0  0  0  0  0  0  0  0  0  0
    5.5978   -9.6385   22.0702 C   0  0  0  0  0  0  0  0  0  0  0  0
    5.7569   -8.3850   22.8622 C   0  0  0  0  0  0  0  0  0  0  0  0
    4.8179   -8.1159   24.0137 C   0  0  0  0  0  0  0  0  0  0  0  0
    4.7815   -9.2150   25.0512 C   0  0  0  0  0  0  0  0  0  0  0  0
    3.9271  -10.3952   24.5904 C   0  0  0  0  0  0  0  0  0  0  0  0
  1  2  1  0
  2  3  2  0
  3  4  1  0
  4  5  1  0
  5  6  1  0
  5  7  2  0
  7  8  1  0
  8  9  2  0
  8 10  1  0
 10 11  1  0
 12 11  1  6
 12 13  1  0
 13 14  2  0
 14 15  1  0
 15 16  1  0
 16 17  1  0
 17 18  1  0
  7  2  1  0
 18 12  1  0
M  END
>  <inspiration_score>  (238) 
0.615

>  <HIPPO Pose ID>  (238) 
1303851

>  <ref_pdb>  (238) 
x0759b

>  <ref_mols>  (238) 
x0759b

>  <HIPPO Compound ID>  (238) 
776661

>  <energy_score>  (238) 
-63.999227

>  <tags>  (238) 
CpKRS_FrAncestor_bulkdock_iter1,CpKRS_FrAncestor_bulkdock_iter1_cluster_best5,fragmenstein_placed,CpKRS_FrAncestor_bulkdock_iter1_exported,BulkDock Fragalysis export

>  <inchikey>  (238) 
ATZBIZNNNCCQMT-UHFFFAOYSA-N

>  <placement_batch>  (238) 
CpKRS_FrAncestor_bulkdock_iter1_cluster_best5

>  <alias>  (238) 
C776661-P61

>  <name>  (238) 
C776661-P61

>  <smiles>  (238) 
Cc1n[nH]c(C)c1C(=O)OC[C@H]1C=CCCCC1

>  <subsites>  (238) 


>  <distance_score>  (238) 
0.699166

$$$$
C777942-P24
     RDKit          3D

 18 20  0  0  0  0  0  0  0  0999 V2000
    2.0176   12.3689   37.8740 F   0  0  0  0  0  0  0  0  0  0  0  0
    1.7520   11.5232   38.8929 C   0  0  0  0  0  0  0  0  0  0  0  0
    0.7275   12.0681   39.5907 F   0  0  0  0  0  0  0  0  0  0  0  0
    1.5576   10.0283   38.5110 C   0  0  0  0  0  0  0  0  0  0  0  0
    2.2565    9.6769   39.8225 C   0  0  0  0  0  0  0  0  0  0  0  0
    3.1355    8.4353   39.7779 C   0  0  0  0  0  0  0  0  0  0  0  0
    4.1068    8.4981   40.8610 N   0  0  0  0  0  0  0  0  0  0  0  0
    5.1087    7.4183   40.7589 C   0  0  0  0  0  0  0  0  0  0  0  0
    4.6561    6.0174   41.2296 C   0  0  0  0  0  0  0  0  0  0  0  0
    4.0130    6.0728   42.5623 N   0  0  0  0  0  0  0  0  0  0  0  0
    3.9334    4.9370   43.3302 C   0  0  0  0  0  0  0  0  0  0  0  0
    4.4332    3.6778   43.0361 C   0  0  0  0  0  0  0  0  0  0  0  0
    4.3161    2.7493   44.1081 C   0  0  0  0  0  0  0  0  0  0  0  0
    3.7079    3.3086   45.2046 C   0  0  0  0  0  0  0  0  0  0  0  0
    3.2476    4.9218   44.9205 S   0  0  0  0  0  0  0  0  0  0  0  0
    2.9555    7.0973   42.6619 C   0  0  0  0  0  0  0  0  0  0  0  0
    3.4837    8.4655   42.1974 C   0  0  0  0  0  0  0  0  0  0  0  0
    2.9603   11.0587   39.7221 C   0  0  0  0  0  0  0  0  0  0  0  0
  1  2  1  0
  2  3  1  0
  2  4  1  0
  4  5  1  0
  5  6  1  0
  6  7  1  0
  7  8  1  0
  8  9  1  0
  9 10  1  0
 10 11  1  0
 11 12  2  0
 12 13  1  0
 13 14  2  0
 14 15  1  0
 10 16  1  0
 16 17  1  0
  5 18  1  0
 18  2  1  0
 17  7  1  0
 15 11  1  0
M  END
>  <inspiration_score>  (239) 
0.57

>  <HIPPO Pose ID>  (239) 
1309505

>  <ref_pdb>  (239) 
x0421b

>  <ref_mols>  (239) 
x0479c

>  <HIPPO Compound ID>  (239) 
777942

>  <energy_score>  (239) 
-52.592408

>  <tags>  (239) 
CpKRS_FrAncestor_bulkdock_iter1,CpKRS_FrAncestor_bulkdock_iter1_cluster_best5,fragmenstein_placed,CpKRS_FrAncestor_bulkdock_iter1_exported,BulkDock Fragalysis export

>  <inchikey>  (239) 
NPRBBDNUJBAFAM-UHFFFAOYSA-N

>  <placement_batch>  (239) 
CpKRS_FrAncestor_bulkdock_iter1_cluster_best5

>  <alias>  (239) 
C777942-P24

>  <name>  (239) 
C777942-P24

>  <smiles>  (239) 
FC1(F)CC(CN2CCN(c3cccs3)CC2)C1

>  <subsites>  (239) 


>  <distance_score>  (239) 
0.521017

$$$$
C777943-P26
     RDKit          3D

 18 19  0  0  0  0  0  0  0  0999 V2000
    1.5714   12.3328   37.8387 F   0  0  0  0  0  0  0  0  0  0  0  0
    2.8919   12.2940   37.5110 C   0  0  0  0  0  0  0  0  0  0  0  0
    3.2987   13.5899   37.5159 F   0  0  0  0  0  0  0  0  0  0  0  0
    2.9727   11.8520   36.2362 F   0  0  0  0  0  0  0  0  0  0  0  0
    3.6776   11.4652   38.4518 C   0  0  0  0  0  0  0  0  0  0  0  0
    3.2418   11.0384   39.6461 C   0  0  0  0  0  0  0  0  0  0  0  0
    4.1562   10.4148   40.6390 C   0  0  0  0  0  0  0  0  0  0  0  0
    3.7971    9.0232   40.8357 N   0  0  0  0  0  0  0  0  0  0  0  0
    5.0172    8.1871   40.8686 C   0  0  0  0  0  0  0  0  0  0  0  0
    4.7047    6.7058   41.1307 C   0  0  0  0  0  0  0  0  0  0  0  0
    3.9698    6.5642   42.4077 N   0  0  0  0  0  0  0  0  0  0  0  0
    3.9387    5.3421   43.0288 C   0  0  0  0  0  0  0  0  0  0  0  0
    4.4313    4.1343   42.5640 C   0  0  0  0  0  0  0  0  0  0  0  0
    4.3862    3.0899   43.5320 C   0  0  0  0  0  0  0  0  0  0  0  0
    3.8600    3.5234   44.7248 C   0  0  0  0  0  0  0  0  0  0  0  0
    3.3392    5.1453   44.6399 S   0  0  0  0  0  0  0  0  0  0  0  0
    2.7328    7.3734   42.4159 C   0  0  0  0  0  0  0  0  0  0  0  0
    3.0299    8.8450   42.0849 C   0  0  0  0  0  0  0  0  0  0  0  0
  1  2  1  0
  2  3  1  0
  2  4  1  0
  2  5  1  0
  5  6  2  3
  6  7  1  0
  7  8  1  0
  8  9  1  0
  9 10  1  0
 10 11  1  0
 11 12  1  0
 12 13  2  0
 13 14  1  0
 14 15  2  0
 15 16  1  0
 11 17  1  0
 17 18  1  0
 18  8  1  0
 16 12  1  0
M  END
>  <inspiration_score>  (240) 
0.55

>  <HIPPO Pose ID>  (240) 
1309507

>  <ref_pdb>  (240) 
x0421b

>  <ref_mols>  (240) 
x0479b

>  <HIPPO Compound ID>  (240) 
777943

>  <energy_score>  (240) 
-41.696422

>  <tags>  (240) 
CpKRS_FrAncestor_bulkdock_iter1,CpKRS_FrAncestor_bulkdock_iter1_cluster_best5,fragmenstein_placed,CpKRS_FrAncestor_bulkdock_iter1_exported,BulkDock Fragalysis export

>  <inchikey>  (240) 
XLGVVFSGSVDAMR-UHFFFAOYSA-N

>  <placement_batch>  (240) 
CpKRS_FrAncestor_bulkdock_iter1_cluster_best5

>  <alias>  (240) 
C777943-P26

>  <name>  (240) 
C777943-P26

>  <smiles>  (240) 
FC(F)(F)C=CCN1CCN(c2cccs2)CC1

>  <subsites>  (240) 


>  <distance_score>  (240) 
0.708119

$$$$
C777952-P25
     RDKit          3D

 18 20  0  0  0  0  0  0  0  0999 V2000
    3.4899    5.4632   45.2859 C   0  0  0  0  0  0  0  0  0  0  0  0
    3.5050    5.1534   43.7964 C   0  0  0  0  0  0  0  0  0  0  0  0
    3.8898    6.3383   43.0151 N   0  0  0  0  0  0  0  0  0  0  0  0
    2.9011    7.4319   42.9816 C   0  0  0  0  0  0  0  0  0  0  0  0
    3.4277    8.6766   42.2761 C   0  0  0  0  0  0  0  0  0  0  0  0
    3.8049    8.3822   40.9056 N   0  0  0  0  0  0  0  0  0  0  0  0
    2.9389    8.8315   39.8229 C   0  0  0  0  0  0  0  0  0  0  0  0
    3.2895   10.2662   39.4182 C   0  0  0  0  0  0  0  0  0  0  0  0
    4.7994   10.6137   39.2080 C   0  0  0  0  0  0  0  0  0  0  0  0
    4.5612   10.2597   37.7151 C   0  0  0  0  0  0  0  0  0  0  0  0
    5.2301    9.8517   36.7914 O   0  0  0  0  0  0  0  0  0  0  0  0
    3.0530   10.5383   37.8995 C   0  0  0  0  0  0  0  0  0  0  0  0
    4.4780    7.1541   40.7329 C   0  0  0  0  0  0  0  0  0  0  0  0
    5.1957    6.9466   39.5406 C   0  0  0  0  0  0  0  0  0  0  0  0
    5.8993    5.7754   39.3066 C   0  0  0  0  0  0  0  0  0  0  0  0
    5.8900    4.7687   40.2489 C   0  0  0  0  0  0  0  0  0  0  0  0
    5.2084    4.9504   41.4490 C   0  0  0  0  0  0  0  0  0  0  0  0
    4.4954    6.1338   41.7384 C   0  0  0  0  0  0  0  0  0  0  0  0
  1  2  1  0
  2  3  1  0
  3  4  1  0
  4  5  1  0
  5  6  1  0
  6  7  1  0
  7  8  1  0
  8  9  1  0
  9 10  1  0
 10 11  2  0
 10 12  1  0
  6 13  1  0
 13 14  2  0
 14 15  1  0
 15 16  2  0
 16 17  1  0
 17 18  2  0
 18  3  1  0
 12  8  1  0
 18 13  1  0
M  END
>  <inspiration_score>  (241) 
0.314

>  <HIPPO Pose ID>  (241) 
1309529

>  <ref_pdb>  (241) 
x0421b

>  <ref_mols>  (241) 
x0479a

>  <HIPPO Compound ID>  (241) 
777952

>  <energy_score>  (241) 
-36.120726

>  <tags>  (241) 
CpKRS_FrAncestor_bulkdock_iter1,CpKRS_FrAncestor_bulkdock_iter1_cluster_best5,fragmenstein_placed,CpKRS_FrAncestor_bulkdock_iter1_exported,BulkDock Fragalysis export

>  <inchikey>  (241) 
XPWPGUOAXPDYIF-UHFFFAOYSA-N

>  <placement_batch>  (241) 
CpKRS_FrAncestor_bulkdock_iter1_cluster_best5

>  <alias>  (241) 
C777952-P25

>  <name>  (241) 
C777952-P25

>  <smiles>  (241) 
CCN1CCN(CC2CC(=O)C2)c2ccccc21

>  <subsites>  (241) 


>  <distance_score>  (241) 
0.967569

$$$$
C784799-P26
     RDKit          3D

 18 20  0  0  0  0  0  0  0  0999 V2000
    4.0550    2.5509   45.9985 C   0  0  0  0  0  0  0  0  0  0  0  0
    3.9094    3.6372   44.9979 C   0  0  0  0  0  0  0  0  0  0  0  0
    4.1911    3.4847   43.6394 C   0  0  0  0  0  0  0  0  0  0  0  0
    4.1416    4.5981   42.7905 C   0  0  0  0  0  0  0  0  0  0  0  0
    3.8090    5.8678   43.2836 C   0  0  0  0  0  0  0  0  0  0  0  0
    3.9072    7.0522   42.5479 N   0  0  0  0  0  0  0  0  0  0  0  0
    2.6393    7.8212   42.5229 C   0  0  0  0  0  0  0  0  0  0  0  0
    2.8575    9.2340   41.9642 C   0  0  0  0  0  0  0  0  0  0  0  0
    3.4927    9.1816   40.6431 N   0  0  0  0  0  0  0  0  0  0  0  0
    3.5923   10.4769   39.9982 C   0  0  0  0  0  0  0  0  0  0  0  0
    3.3461   10.2678   38.5086 C   0  0  0  0  0  0  0  0  0  0  0  0
    4.5504    9.7604   37.6585 C   0  0  0  0  0  0  0  0  0  0  0  0
    3.8486   10.6225   36.2207 S   0  0  0  0  0  0  0  0  0  0  0  0
    3.2542   11.5673   37.6746 C   0  0  0  0  0  0  0  0  0  0  0  0
    4.7794    8.4582   40.7273 C   0  0  0  0  0  0  0  0  0  0  0  0
    4.5560    7.0164   41.2214 C   0  0  0  0  0  0  0  0  0  0  0  0
    3.4605    5.9667   44.6365 C   0  0  0  0  0  0  0  0  0  0  0  0
    3.4987    4.8713   45.4763 C   0  0  0  0  0  0  0  0  0  0  0  0
  1  2  1  0
  2  3  2  0
  3  4  1  0
  4  5  2  0
  5  6  1  0
  6  7  1  0
  7  8  1  0
  8  9  1  0
  9 10  1  0
 10 11  1  0
 11 12  1  0
 12 13  1  0
 13 14  1  0
  9 15  1  0
 15 16  1  0
  5 17  1  0
 17 18  2  0
 18  2  1  0
 16  6  1  0
 14 11  1  0
M  END
>  <inspiration_score>  (242) 
0.579

>  <HIPPO Pose ID>  (242) 
1317853

>  <ref_pdb>  (242) 
x0456a

>  <ref_mols>  (242) 
x0479b

>  <HIPPO Compound ID>  (242) 
784799

>  <energy_score>  (242) 
-48.209328

>  <tags>  (242) 
CpKRS_FrAncestor_bulkdock_iter1,CpKRS_FrAncestor_bulkdock_iter1_cluster_best5,fragmenstein_placed,CpKRS_FrAncestor_bulkdock_iter1_exported,BulkDock Fragalysis export

>  <inchikey>  (242) 
AFUQQBFSCDGLFI-UHFFFAOYSA-N

>  <placement_batch>  (242) 
CpKRS_FrAncestor_bulkdock_iter1_cluster_best5

>  <alias>  (242) 
C784799-P26

>  <name>  (242) 
C784799-P26

>  <smiles>  (242) 
Cc1ccc(N2CCN(CC3CSC3)CC2)cc1

>  <subsites>  (242) 


>  <distance_score>  (242) 
0.567044

$$$$
C784885-P46
     RDKit          3D

 18 20  0  0  0  0  0  0  0  0999 V2000
    1.1731  -14.0490   27.5622 C   0  0  0  0  0  0  0  0  0  0  0  0
    2.4039  -14.5623   27.6974 N   0  0  0  0  0  0  0  0  0  0  0  0
    3.2948  -14.2509   26.7215 C   0  0  0  0  0  0  0  0  0  0  0  0
    3.0446  -13.4345   25.6061 C   0  0  0  0  0  0  0  0  0  0  0  0
    4.2412  -13.1296   24.7410 C   0  0  0  0  0  0  0  0  0  0  0  0
    4.0180  -12.5551   23.4271 N   0  0  0  0  0  0  0  0  0  0  0  0
    3.9234  -11.1202   23.2093 C   0  0  2  0  0  0  0  0  0  0  0  0
    4.9140  -10.8058   22.0867 C   0  0  0  0  0  0  0  0  0  0  0  0
    5.0046   -9.3366   21.6882 C   0  0  0  0  0  0  0  0  0  0  0  0
    5.6994   -8.4885   22.7400 C   0  0  0  0  0  0  0  0  0  0  0  0
    4.8952   -8.0096   23.8038 O   0  0  0  0  0  0  0  0  0  0  0  0
    3.7891   -8.7939   24.2015 C   0  0  0  0  0  0  0  0  0  0  0  0
    4.1296  -10.2492   24.4429 C   0  0  0  0  0  0  0  0  0  0  0  0
    1.7271  -13.0014   25.4741 C   0  0  0  0  0  0  0  0  0  0  0  0
    0.7846  -13.3269   26.4587 C   0  0  0  0  0  0  0  0  0  0  0  0
   -0.5654  -12.7707   26.1493 C   0  0  0  0  0  0  0  0  0  0  0  0
   -0.4247  -12.4812   24.6585 C   0  0  0  0  0  0  0  0  0  0  0  0
    1.0543  -12.1466   24.4402 C   0  0  0  0  0  0  0  0  0  0  0  0
  1  2  2  0
  2  3  1  0
  3  4  2  0
  4  5  1  0
  5  6  1  0
  7  6  1  1
  7  8  1  0
  8  9  1  0
  9 10  1  0
 10 11  1  0
 11 12  1  0
 12 13  1  0
  4 14  1  0
 14 15  2  0
 15 16  1  0
 16 17  1  0
 17 18  1  0
 15  1  1  0
 13  7  1  0
 18 14  1  0
M  END
>  <inspiration_score>  (243) 
0.72

>  <HIPPO Pose ID>  (243) 
1318114

>  <ref_pdb>  (243) 
x0456a

>  <ref_mols>  (243) 
x0502c

>  <HIPPO Compound ID>  (243) 
784885

>  <energy_score>  (243) 
-146.430458

>  <tags>  (243) 
CpKRS_FrAncestor_bulkdock_iter1,CpKRS_FrAncestor_bulkdock_iter1_cluster_best5,fragmenstein_placed,CpKRS_FrAncestor_bulkdock_iter1_exported,BulkDock Fragalysis export

>  <inchikey>  (243) 
AHMMWMLSYUUTBC-UHFFFAOYSA-N

>  <placement_batch>  (243) 
CpKRS_FrAncestor_bulkdock_iter1_cluster_best5

>  <alias>  (243) 
C784885-P46

>  <name>  (243) 
C784885-P46

>  <smiles>  (243) 
c1ncc(CN[C@@H]2CCCOCC2)c2c1CCC2

>  <subsites>  (243) 


>  <distance_score>  (243) 
0.68736

$$$$
C786069-P10
     RDKit          3D

 18 20  0  0  0  0  0  0  0  0999 V2000
    0.8463  -12.0381   24.5394 C   0  0  0  0  0  0  0  0  0  0  0  0
    2.1779  -11.5703   25.1514 C   0  0  2  0  0  0  0  0  0  0  0  0
    2.3245  -10.0616   24.9439 C   0  0  0  0  0  0  0  0  0  0  0  0
    2.6781   -9.6963   23.5332 C   0  0  0  0  0  0  0  0  0  0  0  0
    2.2904   -8.6522   23.0016 O   0  0  0  0  0  0  0  0  0  0  0  0
    3.5429  -10.5409   22.8975 N   0  0  0  0  0  0  0  0  0  0  0  0
    3.9280  -11.7983   23.3831 C   0  0  0  0  0  0  0  0  0  0  0  0
    4.8565  -12.5180   22.6389 C   0  0  0  0  0  0  0  0  0  0  0  0
    5.2163  -13.7939   23.0427 C   0  0  0  0  0  0  0  0  0  0  0  0
    4.7078  -14.3233   24.2258 C   0  0  0  0  0  0  0  0  0  0  0  0
    3.7816  -13.6131   25.0165 C   0  0  0  0  0  0  0  0  0  0  0  0
    3.2767  -14.2945   26.2384 C   0  0  0  0  0  0  0  0  0  0  0  0
    4.0479  -15.0849   27.0121 C   0  0  0  0  0  0  0  0  0  0  0  0
    3.6361  -15.7445   28.1503 O   0  0  0  0  0  0  0  0  0  0  0  0
    2.3543  -15.2772   28.5806 C   0  0  0  0  0  0  0  0  0  0  0  0
    1.4257  -15.0873   27.3997 C   0  0  0  0  0  0  0  0  0  0  0  0
    1.9342  -14.1035   26.5029 O   0  0  0  0  0  0  0  0  0  0  0  0
    3.3437  -12.3418   24.5479 C   0  0  0  0  0  0  0  0  0  0  0  0
  2  1  1  6
  2  3  1  0
  3  4  1  0
  4  5  2  0
  4  6  1  0
  6  7  1  0
  7  8  2  0
  8  9  1  0
  9 10  2  0
 10 11  1  0
 11 12  1  0
 12 13  2  0
 13 14  1  0
 14 15  1  0
 15 16  1  0
 16 17  1  0
 11 18  2  0
 18  2  1  0
 18  7  1  0
 17 12  1  0
M  END
>  <inspiration_score>  (244) 
0.28

>  <HIPPO Pose ID>  (244) 
1321683

>  <ref_pdb>  (244) 
x0456a

>  <ref_mols>  (244) 
x0419c

>  <HIPPO Compound ID>  (244) 
786069

>  <energy_score>  (244) 
-82.398007

>  <tags>  (244) 
CpKRS_FrAncestor_bulkdock_iter1,CpKRS_FrAncestor_bulkdock_iter1_cluster_best5,fragmenstein_placed,CpKRS_FrAncestor_bulkdock_iter1_exported,BulkDock Fragalysis export

>  <inchikey>  (244) 
FMBJCBCUAOFTMX-UHFFFAOYSA-N

>  <placement_batch>  (244) 
CpKRS_FrAncestor_bulkdock_iter1_cluster_best5

>  <alias>  (244) 
C786069-P10

>  <name>  (244) 
C786069-P10

>  <smiles>  (244) 
C[C@@H]1CC(=O)Nc2cccc(C3=COCCO3)c21

>  <subsites>  (244) 


>  <distance_score>  (244) 
0.803131

$$$$
XCQDTDBTNKRNDP-UHFFFAOYSA-N-P64
     RDKit          3D

 19 20  0  0  0  0  0  0  0  0999 V2000
    1.7311  -15.6273   28.3098 C   0  0  0  0  0  0  0  0  0  0  0  0
    2.3295  -15.0903   27.0394 C   0  0  0  0  0  0  0  0  0  0  0  0
    2.3124  -13.7778   26.7544 C   0  0  0  0  0  0  0  0  0  0  0  0
    3.0440  -13.2657   25.6203 C   0  0  0  0  0  0  0  0  0  0  0  0
    3.6306  -14.1019   24.7482 C   0  0  0  0  0  0  0  0  0  0  0  0
    4.6876  -13.6296   23.8142 C   0  0  0  0  0  0  0  0  0  0  0  0
    5.7199  -14.1673   23.7891 O   0  0  0  0  0  0  0  0  0  0  0  0
    4.1742  -12.4191   23.0159 N   0  0  0  0  0  0  0  0  0  0  0  0
    4.8513  -11.5592   22.0899 C   0  0  0  0  0  0  0  0  0  0  0  0
    5.1199  -10.1821   22.6312 C   0  0  0  0  0  0  0  0  0  0  0  0
    5.0427   -9.0601   21.8015 C   0  0  0  0  0  0  0  0  0  0  0  0
    5.3615   -7.7937   22.2947 C   0  0  0  0  0  0  0  0  0  0  0  0
    5.7799   -7.6273   23.6130 C   0  0  0  0  0  0  0  0  0  0  0  0
    5.8921   -8.7368   24.4324 C   0  0  0  0  0  0  0  0  0  0  0  0
    5.5624  -10.0010   23.9438 C   0  0  0  0  0  0  0  0  0  0  0  0
    3.4118  -15.5628   24.8984 C   0  0  0  0  0  0  0  0  0  0  0  0
    3.6562  -16.3347   23.9743 O   0  0  0  0  0  0  0  0  0  0  0  0
    2.9044  -15.9756   26.1295 N   0  0  0  0  0  0  0  0  0  0  0  0
    2.7738  -17.4071   26.3046 C   0  0  0  0  0  0  0  0  0  0  0  0
  1  2  1  0
  2  3  2  0
  3  4  1  0
  4  5  2  0
  5  6  1  0
  6  7  2  0
  6  8  1  0
  8  9  1  0
  9 10  1  0
 10 11  2  0
 11 12  1  0
 12 13  2  0
 13 14  1  0
 14 15  2  0
  5 16  1  0
 16 17  2  0
 16 18  1  0
 18 19  1  0
 18  2  1  0
 15 10  1  0
M  END
>  <inspiration_score>  (245) 
0.725

>  <HIPPO Pose ID>  (245) 
1325406

>  <ref_pdb>  (245) 
x0421a

>  <ref_mols>  (245) 
x0787b

>  <HIPPO Compound ID>  (245) 
787027

>  <energy_score>  (245) 
-267.246905

>  <tags>  (245) 
CpKRS_FrAncestor_bulkdock_iter1,CpKRS_FrAncestor_bulkdock_iter1_cluster_best5,fragmenstein_placed,CpKRS_FrAncestor_bulkdock_iter1_exported,BulkDock Fragalysis export

>  <inchikey>  (245) 
XCQDTDBTNKRNDP-UHFFFAOYSA-N

>  <placement_batch>  (245) 
CpKRS_FrAncestor_bulkdock_iter1_cluster_best5

>  <alias>  (245) 
XCQDTDBTNKRNDP-UHFFFAOYSA-N-P64

>  <name>  (245) 
XCQDTDBTNKRNDP-UHFFFAOYSA-N-P64

>  <smiles>  (245) 
Cc1ccc(C(=O)NCc2ccccc2)c(=O)n1C

>  <subsites>  (245) 


>  <distance_score>  (245) 
0.773954

$$$$
MPWFELVOMBMHKJ-UHFFFAOYSA-N-P61
     RDKit          3D

 19 22  0  0  0  0  0  0  0  0999 V2000
    0.5127  -12.5533   26.0662 C   0  0  0  0  0  0  0  0  0  0  0  0
    1.4514  -13.4994   26.7179 C   0  0  0  0  0  0  0  0  0  0  0  0
    1.1555  -13.9301   28.0003 N   0  0  0  0  0  0  0  0  0  0  0  0
    2.0888  -14.7653   28.3994 C   0  0  0  0  0  0  0  0  0  0  0  0
    3.3491  -15.0913   27.2943 S   0  0  0  0  0  0  0  0  0  0  0  0
    2.6140  -14.0227   26.1742 C   0  0  0  0  0  0  0  0  0  0  0  0
    3.1833  -13.8436   24.8175 C   0  0  0  0  0  0  0  0  0  0  0  0
    3.5937  -12.4800   24.6155 N   0  0  0  0  0  0  0  0  0  0  0  0
    3.1566  -11.4484   23.5529 C   0  0  0  0  0  0  0  0  0  0  0  0
    2.3409  -11.5177   22.7246 O   0  0  0  0  0  0  0  0  0  0  0  0
    4.0199  -10.1905   23.7014 C   0  0  2  0  0  0  0  0  0  0  0  0
    3.8138   -9.1599   22.5804 C   0  0  0  0  0  0  0  0  0  0  0  0
    5.1050   -8.3520   22.6492 C   0  0  1  0  0  0  0  0  0  0  0  0
    5.3291   -7.7033   24.0438 C   0  0  0  0  0  0  0  0  0  0  0  0
    5.1427   -8.7360   25.1871 C   0  0  2  0  0  0  0  0  0  0  0  0
    6.0945   -9.9081   24.9516 C   0  0  0  0  0  0  0  0  0  0  0  0
    5.5613  -10.4581   23.6272 C   0  0  2  0  0  0  0  0  0  0  0  0
    6.0576   -9.5261   22.5139 C   0  0  0  0  0  0  0  0  0  0  0  0
    3.7845   -9.4176   25.0047 C   0  0  0  0  0  0  0  0  0  0  0  0
  1  2  1  0
  2  3  1  0
  3  4  2  0
  4  5  1  0
  5  6  1  0
  6  7  1  0
  7  8  1  0
  8  9  1  0
  9 10  2  0
 11  9  1  6
 11 12  1  0
 13 12  1  1
 13 14  1  0
 15 14  1  6
 15 16  1  0
 17 16  1  1
 17 18  1  0
 15 19  1  0
  6  2  2  0
 17 11  1  0
 19 11  1  0
 18 13  1  0
M  END
>  <inspiration_score>  (246) 
0.738

>  <HIPPO Pose ID>  (246) 
1327831

>  <ref_pdb>  (246) 
x0421a

>  <ref_mols>  (246) 
x0759b

>  <HIPPO Compound ID>  (246) 
787699

>  <energy_score>  (246) 
-70.480093

>  <tags>  (246) 
CpKRS_FrAncestor_bulkdock_iter1,CpKRS_FrAncestor_bulkdock_iter1_cluster_best5,fragmenstein_placed,CpKRS_FrAncestor_bulkdock_iter1_exported,BulkDock Fragalysis export

>  <inchikey>  (246) 
MPWFELVOMBMHKJ-UHFFFAOYSA-N

>  <placement_batch>  (246) 
CpKRS_FrAncestor_bulkdock_iter1_cluster_best5

>  <alias>  (246) 
MPWFELVOMBMHKJ-UHFFFAOYSA-N-P61

>  <name>  (246) 
MPWFELVOMBMHKJ-UHFFFAOYSA-N-P61

>  <smiles>  (246) 
Cc1ncsc1CNC(=O)C12CC3CC(CC1C3)C2

>  <subsites>  (246) 


>  <distance_score>  (246) 
0.963921

$$$$
GOWUVFSYRXBTSI-UHFFFAOYSA-N-P45
     RDKit          3D

 19 20  0  0  0  0  0  0  0  0999 V2000
    3.5632  -16.0373   28.8163 C   0  0  0  0  0  0  0  0  0  0  0  0
    3.1144  -15.1947   27.7497 N   0  0  0  0  0  0  0  0  0  0  0  0
    1.8849  -14.5778   27.8008 C   0  0  0  0  0  0  0  0  0  0  0  0
    1.5141  -13.7279   26.8394 C   0  0  0  0  0  0  0  0  0  0  0  0
    2.4559  -13.3811   25.8054 C   0  0  0  0  0  0  0  0  0  0  0  0
    3.6385  -14.0218   25.6771 C   0  0  0  0  0  0  0  0  0  0  0  0
    4.7226  -13.4458   24.8266 C   0  0  0  0  0  0  0  0  0  0  0  0
    5.8158  -13.4085   25.2264 O   0  0  0  0  0  0  0  0  0  0  0  0
    4.1155  -12.8863   23.5249 N   0  0  0  0  0  0  0  0  0  0  0  0
    4.7041  -12.0851   22.4928 C   0  0  0  0  0  0  0  0  0  0  0  0
    4.5910  -10.5862   22.8389 C   0  0  0  0  0  0  0  0  0  0  0  0
    5.2677   -9.7527   21.7107 C   0  0  0  0  0  0  0  0  0  0  0  0
    5.0524   -8.2331   21.7694 C   0  0  0  0  0  0  0  0  0  0  0  0
    5.3514   -7.7316   23.1423 C   0  0  0  0  0  0  0  0  0  0  0  0
    4.3679   -7.9856   24.0162 C   0  0  0  0  0  0  0  0  0  0  0  0
    4.6271   -9.0682   24.9865 C   0  0  0  0  0  0  0  0  0  0  0  0
    5.2009  -10.2858   24.2457 C   0  0  0  0  0  0  0  0  0  0  0  0
    3.9947  -15.0664   26.6768 C   0  0  0  0  0  0  0  0  0  0  0  0
    5.0251  -15.7325   26.6009 O   0  0  0  0  0  0  0  0  0  0  0  0
  1  2  1  0
  2  3  1  0
  3  4  2  0
  4  5  1  0
  5  6  2  0
  6  7  1  0
  7  8  2  0
  7  9  1  0
  9 10  1  0
 10 11  1  0
 11 12  1  0
 12 13  1  0
 13 14  1  0
 14 15  2  0
 15 16  1  0
 16 17  1  0
  6 18  1  0
 18 19  2  0
 18  2  1  0
 17 11  1  0
M  END
>  <inspiration_score>  (247) 
0.741

>  <HIPPO Pose ID>  (247) 
1334787

>  <ref_pdb>  (247) 
x0421a

>  <ref_mols>  (247) 
x0502a

>  <HIPPO Compound ID>  (247) 
789559

>  <energy_score>  (247) 
-208.153247

>  <tags>  (247) 
CpKRS_FrAncestor_bulkdock_iter1,CpKRS_FrAncestor_bulkdock_iter1_cluster_best5,fragmenstein_placed,CpKRS_FrAncestor_bulkdock_iter1_exported,BulkDock Fragalysis export

>  <inchikey>  (247) 
GOWUVFSYRXBTSI-UHFFFAOYSA-N

>  <placement_batch>  (247) 
CpKRS_FrAncestor_bulkdock_iter1_cluster_best5

>  <alias>  (247) 
GOWUVFSYRXBTSI-UHFFFAOYSA-N-P45

>  <name>  (247) 
GOWUVFSYRXBTSI-UHFFFAOYSA-N-P45

>  <smiles>  (247) 
Cn1cccc(C(=O)NCC2CCC=CCC2)c1=O

>  <subsites>  (247) 


>  <distance_score>  (247) 
0.835763

$$$$
UZBQFACWEOJKJT-UHFFFAOYSA-N-P44
     RDKit          3D

 19 20  0  0  0  0  0  0  0  0999 V2000
  -11.6302  -11.2977   46.2461 C   0  0  0  0  0  0  0  0  0  0  0  0
  -10.6314  -12.4536   46.1658 C   0  0  2  0  0  0  0  0  0  0  0  0
  -10.1148  -12.4134   44.8855 F   0  0  0  0  0  0  0  0  0  0  0  0
  -11.4875  -13.7319   46.3398 C   0  0  0  0  0  0  0  0  0  0  0  0
  -11.7698  -14.2128   47.3678 O   0  0  0  0  0  0  0  0  0  0  0  0
  -11.9283  -14.1107   44.8929 N   0  0  0  0  0  0  0  0  0  0  0  0
  -12.7297  -15.2167   44.4145 C   0  0  2  0  0  0  0  0  0  0  0  0
  -14.1029  -15.1626   45.1059 C   0  0  0  0  0  0  0  0  0  0  0  0
  -15.1705  -16.1336   44.6083 C   0  0  0  0  0  0  0  0  0  0  0  0
  -15.2133  -16.2818   43.1213 C   0  0  0  0  0  0  0  0  0  0  0  0
  -14.3611  -16.9757   42.3515 C   0  0  0  0  0  0  0  0  0  0  0  0
  -13.1414  -17.7845   42.7036 C   0  0  0  0  0  0  0  0  0  0  0  0
  -12.6071  -17.8048   44.1338 C   0  0  0  0  0  0  0  0  0  0  0  0
  -11.9430  -16.5147   44.6021 C   0  0  0  0  0  0  0  0  0  0  0  0
   -9.5230  -12.3254   47.1669 C   0  0  0  0  0  0  0  0  0  0  0  0
   -9.0742  -13.2248   48.1675 C   0  0  0  0  0  0  0  0  0  0  0  0
   -8.0226  -12.5821   48.7632 C   0  0  0  0  0  0  0  0  0  0  0  0
   -7.8362  -11.3797   48.1728 O   0  0  0  0  0  0  0  0  0  0  0  0
   -8.7735  -11.2078   47.1736 N   0  0  0  0  0  0  0  0  0  0  0  0
  2  1  1  6
  2  3  1  0
  2  4  1  0
  4  5  2  0
  4  6  1  0
  7  6  1  1
  7  8  1  0
  8  9  1  0
  9 10  1  0
 10 11  2  3
 11 12  1  0
 12 13  1  0
 13 14  1  0
  2 15  1  0
 15 16  1  0
 16 17  2  0
 17 18  1  0
 18 19  1  0
 14  7  1  0
 19 15  2  0
M  END
>  <inspiration_score>  (248) 
0.495

>  <HIPPO Pose ID>  (248) 
1335551

>  <ref_pdb>  (248) 
x0421a

>  <ref_mols>  (248) 
x0502b

>  <HIPPO Compound ID>  (248) 
789775

>  <energy_score>  (248) 
-209.136343

>  <tags>  (248) 
CpKRS_FrAncestor_bulkdock_iter1,CpKRS_FrAncestor_bulkdock_iter1_cluster_best5,fragmenstein_placed,CpKRS_FrAncestor_bulkdock_iter1_exported,BulkDock Fragalysis export

>  <inchikey>  (248) 
UZBQFACWEOJKJT-UHFFFAOYSA-N

>  <placement_batch>  (248) 
CpKRS_FrAncestor_bulkdock_iter1_cluster_best5

>  <alias>  (248) 
UZBQFACWEOJKJT-UHFFFAOYSA-N-P44

>  <name>  (248) 
UZBQFACWEOJKJT-UHFFFAOYSA-N-P44

>  <smiles>  (248) 
CC(F)(C(=O)NC1CCC=CCCC1)c1ccon1

>  <subsites>  (248) 


>  <distance_score>  (248) 
0.958776

$$$$
LLAJBCHXCIBRID-UHFFFAOYSA-N-P62
     RDKit          3D

 19 21  0  0  0  0  0  0  0  0999 V2000
    2.5626  -12.6699   25.7260 O   0  0  0  0  0  0  0  0  0  0  0  0
    3.3675  -13.3138   25.1796 C   0  0  0  0  0  0  0  0  0  0  0  0
    4.0945  -14.5076   25.7572 C   0  0  0  0  0  0  0  0  0  0  0  0
    3.5154  -15.1009   26.9340 N   0  0  0  0  0  0  0  0  0  0  0  0
    2.2260  -15.0885   27.3758 C   0  0  0  0  0  0  0  0  0  0  0  0
    2.2508  -15.6958   28.6047 C   0  0  0  0  0  0  0  0  0  0  0  0
    3.5824  -16.1300   28.7545 C   0  0  0  0  0  0  0  0  0  0  0  0
    4.3423  -15.8283   27.7106 N   0  0  0  0  0  0  0  0  0  0  0  0
    3.9988  -13.1510   23.7675 N   0  0  0  0  0  0  0  0  0  0  0  0
    3.8353  -12.1106   22.7845 C   0  0  0  0  0  0  0  0  0  0  0  0
    5.1767  -11.6650   22.2148 C   0  0  0  0  0  0  0  0  0  0  0  0
    5.0730  -10.3235   23.0008 C   0  0  0  0  0  0  0  0  0  0  0  0
    5.4569   -9.2416   21.9825 C   0  0  0  0  0  0  0  0  0  0  0  0
    5.1256   -7.8245   22.3898 C   0  0  0  0  0  0  0  0  0  0  0  0
    5.7130   -7.3775   23.7198 C   0  0  0  0  0  0  0  0  0  0  0  0
    4.9109   -7.9064   24.8903 C   0  0  0  0  0  0  0  0  0  0  0  0
    5.2928   -9.2954   25.3391 C   0  0  0  0  0  0  0  0  0  0  0  0
    5.8710  -10.2469   24.3020 C   0  0  0  0  0  0  0  0  0  0  0  0
    3.5939  -10.6801   23.2856 C   0  0  0  0  0  0  0  0  0  0  0  0
  1  2  2  0
  2  3  1  0
  3  4  1  0
  4  5  1  0
  5  6  2  0
  6  7  1  0
  7  8  2  0
  2  9  1  0
  9 10  1  0
 10 11  1  0
 11 12  1  0
 12 13  1  0
 13 14  1  0
 14 15  1  0
 15 16  1  0
 16 17  1  0
 17 18  1  0
 12 19  1  0
  8  4  1  0
 19 10  1  0
 18 12  1  0
M  END
>  <inspiration_score>  (249) 
0.494

>  <HIPPO Pose ID>  (249) 
1339659

>  <ref_pdb>  (249) 
x0421a

>  <ref_mols>  (249) 
x0759a

>  <HIPPO Compound ID>  (249) 
790838

>  <energy_score>  (249) 
-148.069513

>  <tags>  (249) 
CpKRS_FrAncestor_bulkdock_iter1,CpKRS_FrAncestor_bulkdock_iter1_cluster_best5,fragmenstein_placed,CpKRS_FrAncestor_bulkdock_iter1_exported,BulkDock Fragalysis export

>  <inchikey>  (249) 
LLAJBCHXCIBRID-UHFFFAOYSA-N

>  <placement_batch>  (249) 
CpKRS_FrAncestor_bulkdock_iter1_cluster_best5

>  <alias>  (249) 
LLAJBCHXCIBRID-UHFFFAOYSA-N-P62

>  <name>  (249) 
LLAJBCHXCIBRID-UHFFFAOYSA-N-P62

>  <smiles>  (249) 
O=C(Cn1cccn1)NC1CC2(CCCCCC2)C1

>  <subsites>  (249) 


>  <distance_score>  (249) 
0.87044

$$$$
C46735-P61
     RDKit          3D

 19 20  0  0  0  0  0  0  0  0999 V2000
   -0.3771  -12.7015   26.0660 C   0  0  0  0  0  0  0  0  0  0  0  0
    0.6219  -13.2498   26.4446 C   0  0  0  0  0  0  0  0  0  0  0  0
    1.8071  -13.9124   26.8741 C   0  0  0  0  0  0  0  0  0  0  0  0
    1.7867  -14.6826   28.0065 N   0  0  0  0  0  0  0  0  0  0  0  0
    3.0032  -15.1826   28.0247 C   0  0  0  0  0  0  0  0  0  0  0  0
    3.8272  -14.7746   27.0292 O   0  0  0  0  0  0  0  0  0  0  0  0
    3.0513  -13.9249   26.2805 C   0  0  0  0  0  0  0  0  0  0  0  0
    3.6416  -13.2919   25.1173 C   0  0  0  0  0  0  0  0  0  0  0  0
    4.4410  -13.8589   24.4883 O   0  0  0  0  0  0  0  0  0  0  0  0
    3.0060  -11.8993   24.9072 N   0  0  0  0  0  0  0  0  0  0  0  0
    3.1526  -10.9600   23.8311 C   0  0  0  0  0  0  0  0  0  0  0  0
    4.5451  -10.7192   23.1897 C   0  0  0  0  0  0  0  0  0  0  0  0
    4.9038  -11.9057   22.2661 C   0  0  0  0  0  0  0  0  0  0  0  0
    5.6746  -10.5959   24.2284 C   0  0  0  0  0  0  0  0  0  0  0  0
    5.6038   -9.4772   25.2528 C   0  0  0  0  0  0  0  0  0  0  0  0
    6.1675   -8.1537   24.7840 C   0  0  0  0  0  0  0  0  0  0  0  0
    5.3502   -7.5667   23.6574 C   0  0  0  0  0  0  0  0  0  0  0  0
    5.4434   -8.3653   22.3656 C   0  0  0  0  0  0  0  0  0  0  0  0
    4.3948   -9.4638   22.2667 C   0  0  0  0  0  0  0  0  0  0  0  0
  1  2  3  0
  2  3  1  0
  3  4  1  0
  4  5  2  0
  5  6  1  0
  6  7  1  0
  7  8  1  0
  8  9  2  0
  8 10  1  0
 10 11  1  0
 11 12  1  0
 12 13  1  0
 12 14  1  0
 14 15  1  0
 15 16  1  0
 16 17  1  0
 17 18  1  0
 18 19  1  0
  7  3  2  0
 19 12  1  0
M  END
>  <inspiration_score>  (250) 
0.763

>  <HIPPO Pose ID>  (250) 
1350778

>  <ref_pdb>  (250) 
x0421a

>  <ref_mols>  (250) 
x0759b

>  <HIPPO Compound ID>  (250) 
46735

>  <energy_score>  (250) 
-129.607427

>  <tags>  (250) 
CpKRS_FrAncestor_bulkdock_iter1,CpKRS_FrAncestor_bulkdock_iter1_cluster_best5,fragmenstein_placed,CpKRS_FrAncestor_bulkdock_iter1_exported,BulkDock Fragalysis export

>  <inchikey>  (250) 
JCEOZVZFZBOVCU-UHFFFAOYSA-N

>  <placement_batch>  (250) 
CpKRS_FrAncestor_bulkdock_iter1_cluster_best5

>  <alias>  (250) 
C46735-P61

>  <name>  (250) 
C46735-P61

>  <smiles>  (250) 
C#Cc1ncoc1C(=O)NCC1(C)CCCCCC1

>  <subsites>  (250) 


>  <distance_score>  (250) 
0.848335

$$$$
XCKFKBLKXVMTDE-ZETCQYMHSA-N-P20
     RDKit          3D

 19 20  0  0  0  0  0  0  0  0999 V2000
    1.2654    6.5362   45.4811 C   0  0  0  0  0  0  0  0  0  0  0  0
    2.7664    6.4020   45.5267 C   0  0  2  0  0  0  0  0  0  0  0  0
    3.3707    6.4518   44.2135 N   0  0  0  0  0  0  0  0  0  0  0  0
    3.4401    5.3804   43.0962 C   0  0  0  0  0  0  0  0  0  0  0  0
    3.0874    4.2661   43.0926 O   0  0  0  0  0  0  0  0  0  0  0  0
    4.1794    5.9299   41.9037 C   0  0  0  0  0  0  0  0  0  0  0  0
    4.9072    5.0441   41.1934 C   0  0  0  0  0  0  0  0  0  0  0  0
    5.7272    5.4526   40.0828 C   0  0  0  0  0  0  0  0  0  0  0  0
    5.7961    6.7448   39.7495 C   0  0  0  0  0  0  0  0  0  0  0  0
    5.0782    7.6911   40.4533 N   0  0  0  0  0  0  0  0  0  0  0  0
    5.1603    9.0850   40.1259 C   0  0  0  0  0  0  0  0  0  0  0  0
    3.9493    9.5752   39.7598 F   0  0  0  0  0  0  0  0  0  0  0  0
    5.9904    9.3116   39.0744 F   0  0  0  0  0  0  0  0  0  0  0  0
    5.6179    9.8319   41.1566 F   0  0  0  0  0  0  0  0  0  0  0  0
    4.2654    7.3701   41.5228 C   0  0  0  0  0  0  0  0  0  0  0  0
    3.6861    8.2134   42.2007 O   0  0  0  0  0  0  0  0  0  0  0  0
    3.3033    5.2390   46.3006 C   0  0  0  0  0  0  0  0  0  0  0  0
    2.4563    4.4339   47.2703 C   0  0  0  0  0  0  0  0  0  0  0  0
    2.9780    3.8011   46.0209 C   0  0  0  0  0  0  0  0  0  0  0  0
  2  1  1  6
  2  3  1  0
  3  4  1  0
  4  5  2  0
  4  6  1  0
  6  7  2  0
  7  8  1  0
  8  9  2  0
  9 10  1  0
 10 11  1  0
 11 12  1  0
 11 13  1  0
 11 14  1  0
 10 15  1  0
 15 16  2  0
  2 17  1  0
 17 18  1  0
 18 19  1  0
 15  6  1  0
 19 17  1  0
M  END
>  <inspiration_score>  (251) 
0.817

>  <HIPPO Pose ID>  (251) 
1354402

>  <ref_pdb>  (251) 
x0421d

>  <ref_mols>  (251) 
x0456a

>  <HIPPO Compound ID>  (251) 
44759

>  <energy_score>  (251) 
-250.18027

>  <tags>  (251) 
CpKRS_FrAncestor_bulkdock_iter1,CpKRS_FrAncestor_bulkdock_iter1_cluster_best5,fragmenstein_placed,CpKRS_FrAncestor_bulkdock_iter1_exported,BulkDock Fragalysis export

>  <inchikey>  (251) 
XCKFKBLKXVMTDE-UHFFFAOYSA-N

>  <placement_batch>  (251) 
CpKRS_FrAncestor_bulkdock_iter1_cluster_best5

>  <alias>  (251) 
XCKFKBLKXVMTDE-ZETCQYMHSA-N-P20

>  <name>  (251) 
XCKFKBLKXVMTDE-ZETCQYMHSA-N-P20

>  <smiles>  (251) 
C[C@H](NC(=O)c1cccn(C(F)(F)F)c1=O)C1CC1

>  <subsites>  (251) 


>  <distance_score>  (251) 
0.448957

$$$$
ILCPVMDDZWVADY-UHFFFAOYSA-N-P11
     RDKit          3D

 19 20  0  0  0  0  0  0  0  0999 V2000
    1.5779   -9.3263   23.7022 C   0  0  0  0  0  0  0  0  0  0  0  0
    2.9804   -9.2048   24.2787 C   0  0  0  0  0  0  0  0  0  0  0  0
    3.9948  -10.3249   23.9196 C   0  0  0  0  0  0  0  0  0  0  0  0
    3.5340  -11.4930   24.6432 N   0  0  0  0  0  0  0  0  0  0  0  0
    4.2293  -12.8456   24.9124 C   0  0  0  0  0  0  0  0  0  0  0  0
    5.3108  -13.2029   24.6602 O   0  0  0  0  0  0  0  0  0  0  0  0
    3.2393  -13.7232   25.6487 C   0  0  0  0  0  0  0  0  0  0  0  0
    3.7192  -14.7153   26.4191 C   0  0  0  0  0  0  0  0  0  0  0  0
    2.8408  -15.5788   27.1688 C   0  0  0  0  0  0  0  0  0  0  0  0
    1.5152  -15.4154   27.1072 C   0  0  0  0  0  0  0  0  0  0  0  0
    0.9598  -14.4215   26.3323 N   0  0  0  0  0  0  0  0  0  0  0  0
   -0.4739  -14.2748   26.2259 C   0  0  0  0  0  0  0  0  0  0  0  0
    1.7504  -13.5409   25.5945 C   0  0  0  0  0  0  0  0  0  0  0  0
    1.2414  -12.6236   24.9458 O   0  0  0  0  0  0  0  0  0  0  0  0
    4.0716  -10.6898   22.4285 C   0  0  0  0  0  0  0  0  0  0  0  0
    4.5439   -9.5285   21.5680 C   0  0  0  0  0  0  0  0  0  0  0  0
    5.8933   -9.0094   22.0100 C   0  0  0  0  0  0  0  0  0  0  0  0
    5.9514   -8.7044   23.4960 C   0  0  0  0  0  0  0  0  0  0  0  0
    5.3899   -9.8367   24.3630 C   0  0  0  0  0  0  0  0  0  0  0  0
  1  2  1  0
  2  3  1  0
  3  4  1  0
  4  5  1  0
  5  6  2  0
  5  7  1  0
  7  8  2  0
  8  9  1  0
  9 10  2  0
 10 11  1  0
 11 12  1  0
 11 13  1  0
 13 14  2  0
  3 15  1  0
 15 16  1  0
 16 17  1  0
 17 18  1  0
 18 19  1  0
 19  3  1  0
 13  7  1  0
M  END
>  <inspiration_score>  (252) 
0.636

>  <HIPPO Pose ID>  (252) 
1354580

>  <ref_pdb>  (252) 
x0421d

>  <ref_mols>  (252) 
x0421a

>  <HIPPO Compound ID>  (252) 
47838

>  <energy_score>  (252) 
-287.865412

>  <tags>  (252) 
CpKRS_FrAncestor_bulkdock_iter1,CpKRS_FrAncestor_bulkdock_iter1_cluster_best5,fragmenstein_placed,CpKRS_FrAncestor_bulkdock_iter1_exported,BulkDock Fragalysis export

>  <inchikey>  (252) 
ILCPVMDDZWVADY-UHFFFAOYSA-N

>  <placement_batch>  (252) 
CpKRS_FrAncestor_bulkdock_iter1_cluster_best5

>  <alias>  (252) 
ILCPVMDDZWVADY-UHFFFAOYSA-N-P11

>  <name>  (252) 
ILCPVMDDZWVADY-UHFFFAOYSA-N-P11

>  <smiles>  (252) 
CCC1(NC(=O)c2cccn(C)c2=O)CCCCC1

>  <subsites>  (252) 


>  <distance_score>  (252) 
0.835414

$$$$
C51832-P38
     RDKit          3D

 19 19  0  0  0  0  0  0  0  0999 V2000
    3.9312   -8.7729   22.3635 C   0  0  0  0  0  0  0  0  0  0  0  0
    5.0690   -9.2882   23.2167 C   0  0  0  0  0  0  0  0  0  0  0  0
    5.0083   -8.6918   24.6172 C   0  0  0  0  0  0  0  0  0  0  0  0
    5.2324  -10.8116   23.2257 C   0  0  1  0  0  0  0  0  0  0  0  0
    4.4024  -11.5821   24.1344 N   0  0  0  0  0  0  0  0  0  0  0  0
    4.6410  -12.9551   24.7831 C   0  0  0  0  0  0  0  0  0  0  0  0
    5.5726  -13.6509   24.7535 O   0  0  0  0  0  0  0  0  0  0  0  0
    3.4348  -13.3901   25.5556 C   0  0  0  0  0  0  0  0  0  0  0  0
    3.5931  -14.4442   26.3763 C   0  0  0  0  0  0  0  0  0  0  0  0
    2.6341  -14.9331   27.2517 N   0  0  0  0  0  0  0  0  0  0  0  0
    2.9317  -16.1212   28.0514 C   0  0  0  0  0  0  0  0  0  0  0  0
    1.3787  -14.3572   27.2197 C   0  0  0  0  0  0  0  0  0  0  0  0
    1.0468  -13.3289   26.4307 C   0  0  0  0  0  0  0  0  0  0  0  0
    2.1020  -12.7422   25.5668 C   0  0  0  0  0  0  0  0  0  0  0  0
    1.8631  -11.7248   24.9166 O   0  0  0  0  0  0  0  0  0  0  0  0
    5.1429  -11.4454   21.8389 C   0  0  0  0  0  0  0  0  0  0  0  0
    3.8732  -11.8480   21.5867 F   0  0  0  0  0  0  0  0  0  0  0  0
    5.9386  -12.5250   21.7407 F   0  0  0  0  0  0  0  0  0  0  0  0
    5.4668  -10.5757   20.8648 F   0  0  0  0  0  0  0  0  0  0  0  0
  1  2  1  0
  2  3  1  0
  2  4  1  0
  4  5  1  1
  5  6  1  0
  6  7  2  0
  6  8  1  0
  8  9  2  0
  9 10  1  0
 10 11  1  0
 10 12  1  0
 12 13  2  0
 13 14  1  0
 14 15  2  0
  4 16  1  0
 16 17  1  0
 16 18  1  0
 16 19  1  0
 14  8  1  0
M  END
>  <inspiration_score>  (253) 
0.788

>  <HIPPO Pose ID>  (253) 
1369186

>  <ref_pdb>  (253) 
x0421b

>  <ref_mols>  (253) 
x0555a

>  <HIPPO Compound ID>  (253) 
51832

>  <energy_score>  (253) 
-280.815236

>  <tags>  (253) 
CpKRS_FrAncestor_bulkdock_iter1,CpKRS_FrAncestor_bulkdock_iter1_cluster_best5,fragmenstein_placed,CpKRS_FrAncestor_bulkdock_iter1_exported,BulkDock Fragalysis export

>  <inchikey>  (253) 
BXDLSACCNKNWCX-UHFFFAOYSA-N

>  <placement_batch>  (253) 
CpKRS_FrAncestor_bulkdock_iter1_cluster_best5

>  <alias>  (253) 
C51832-P38

>  <name>  (253) 
C51832-P38

>  <smiles>  (253) 
CC(C)[C@@H](NC(=O)c1cn(C)ccc1=O)C(F)(F)F

>  <subsites>  (253) 


>  <distance_score>  (253) 
0.609279

$$$$
FGKPOSVSQPBEPE-ISLUWDGWSA-N-P12
     RDKit          3D

 19 21  0  0  0  0  0  0  0  0999 V2000
    4.8055   -8.6176   21.1054 C   0  0  0  0  0  0  0  0  0  0  0  0
    5.6898   -9.3442   22.0666 C   0  0  1  0  0  0  0  0  0  0  0  0
    5.7689   -8.5655   23.3857 C   0  0  0  0  0  0  0  0  0  0  0  0
    4.9294   -9.3881   24.3404 C   0  0  0  0  0  0  0  0  0  0  0  0
    5.2587  -10.7982   23.8745 C   0  0  1  0  0  0  0  0  0  0  0  0
    4.4807  -11.8131   24.4761 N   0  0  0  0  0  0  0  0  0  0  0  0
    4.6590  -13.3623   24.4697 C   0  0  0  0  0  0  0  0  0  0  0  0
    5.4286  -14.0317   23.9040 O   0  0  0  0  0  0  0  0  0  0  0  0
    3.6356  -13.8150   25.4781 C   0  0  2  0  0  0  0  0  0  0  0  0
    3.6058  -15.2469   25.9649 C   0  0  0  0  0  0  0  0  0  0  0  0
    2.3996  -15.0004   26.8061 C   0  0  0  0  0  0  0  0  0  0  0  0
    2.0955  -15.4408   28.0709 C   0  0  0  0  0  0  0  0  0  0  0  0
    1.0047  -14.8353   28.6943 C   0  0  0  0  0  0  0  0  0  0  0  0
    0.5588  -15.3336   30.2694 Cl  0  0  0  0  0  0  0  0  0  0  0  0
    0.2209  -13.8674   28.0402 C   0  0  0  0  0  0  0  0  0  0  0  0
    0.5172  -13.4466   26.7552 C   0  0  0  0  0  0  0  0  0  0  0  0
    1.6422  -13.9896   26.2003 C   0  0  0  0  0  0  0  0  0  0  0  0
    2.2914  -13.4353   25.1235 O   0  0  0  0  0  0  0  0  0  0  0  0
    5.1183  -10.7258   22.3771 C   0  0  0  0  0  0  0  0  0  0  0  0
  2  1  1  6
  2  3  1  0
  3  4  1  0
  4  5  1  0
  5  6  1  1
  6  7  1  0
  7  8  2  0
  9  7  1  6
  9 10  1  0
 10 11  1  0
 11 12  2  0
 12 13  1  0
 13 14  1  0
 13 15  2  0
 15 16  1  0
 16 17  2  0
 17 18  1  0
  5 19  1  0
 19  2  1  0
 18  9  1  0
 17 11  1  0
M  END
>  <inspiration_score>  (254) 
0.653

>  <HIPPO Pose ID>  (254) 
1382353

>  <ref_pdb>  (254) 
x0421d

>  <ref_mols>  (254) 
x0421b

>  <HIPPO Compound ID>  (254) 
57203

>  <energy_score>  (254) 
-283.078808

>  <tags>  (254) 
CpKRS_FrAncestor_bulkdock_iter1,CpKRS_FrAncestor_bulkdock_iter1_cluster_best5,fragmenstein_placed,CpKRS_FrAncestor_bulkdock_iter1_exported,BulkDock Fragalysis export

>  <inchikey>  (254) 
FGKPOSVSQPBEPE-UHFFFAOYSA-N

>  <placement_batch>  (254) 
CpKRS_FrAncestor_bulkdock_iter1_cluster_best5

>  <alias>  (254) 
FGKPOSVSQPBEPE-ISLUWDGWSA-N-P12

>  <name>  (254) 
FGKPOSVSQPBEPE-ISLUWDGWSA-N-P12

>  <smiles>  (254) 
C[C@H]1CC[C@@H](NC(=O)C2Cc3cc(Cl)ccc3O2)C1

>  <subsites>  (254) 


>  <distance_score>  (254) 
0.58359

$$$$
SOKMIUPECOWOEQ-WDEREUQCSA-N-P13
     RDKit          3D

 19 21  0  0  0  0  0  0  0  0999 V2000
    4.8880   -8.6899   21.2671 C   0  0  0  0  0  0  0  0  0  0  0  0
    5.7999   -9.4344   22.2034 C   0  0  1  0  0  0  0  0  0  0  0  0
    5.9016   -8.6752   23.5304 C   0  0  0  0  0  0  0  0  0  0  0  0
    4.9178   -9.3958   24.4313 C   0  0  0  0  0  0  0  0  0  0  0  0
    5.1580  -10.8441   24.0381 C   0  0  1  0  0  0  0  0  0  0  0  0
    4.1794  -11.7524   24.5250 N   0  0  0  0  0  0  0  0  0  0  0  0
    4.3015  -13.2332   24.9261 C   0  0  0  0  0  0  0  0  0  0  0  0
    5.2054  -13.9645   24.8488 O   0  0  0  0  0  0  0  0  0  0  0  0
    3.0212  -13.6703   25.5810 C   0  0  0  0  0  0  0  0  0  0  0  0
    3.1208  -14.6984   26.4431 C   0  0  0  0  0  0  0  0  0  0  0  0
    1.9804  -15.1757   27.1718 C   0  0  0  0  0  0  0  0  0  0  0  0
    0.7764  -14.6410   26.9493 C   0  0  0  0  0  0  0  0  0  0  0  0
    0.5957  -13.6203   26.0403 N   0  0  0  0  0  0  0  0  0  0  0  0
   -0.7423  -13.1044   25.8448 C   0  0  0  0  0  0  0  0  0  0  0  0
   -1.3303  -12.9395   24.4647 C   0  0  0  0  0  0  0  0  0  0  0  0
   -1.8848  -13.9788   25.3868 C   0  0  0  0  0  0  0  0  0  0  0  0
    1.6837  -13.0277   25.3779 C   0  0  0  0  0  0  0  0  0  0  0  0
    1.5729  -12.0258   24.6694 O   0  0  0  0  0  0  0  0  0  0  0  0
    5.2306  -10.8188   22.5226 C   0  0  0  0  0  0  0  0  0  0  0  0
  2  1  1  6
  2  3  1  0
  3  4  1  0
  4  5  1  0
  5  6  1  6
  6  7  1  0
  7  8  2  0
  7  9  1  0
  9 10  2  0
 10 11  1  0
 11 12  2  0
 12 13  1  0
 13 14  1  0
 14 15  1  0
 15 16  1  0
 13 17  1  0
 17 18  2  0
  5 19  1  0
 19  2  1  0
 17  9  1  0
 16 14  1  0
M  END
>  <inspiration_score>  (255) 
0.679

>  <HIPPO Pose ID>  (255) 
1382390

>  <ref_pdb>  (255) 
x0421d

>  <ref_mols>  (255) 
x0421c

>  <HIPPO Compound ID>  (255) 
57212

>  <energy_score>  (255) 
-283.151962

>  <tags>  (255) 
CpKRS_FrAncestor_bulkdock_iter1,CpKRS_FrAncestor_bulkdock_iter1_cluster_best5,fragmenstein_placed,CpKRS_FrAncestor_bulkdock_iter1_exported,BulkDock Fragalysis export

>  <inchikey>  (255) 
SOKMIUPECOWOEQ-UHFFFAOYSA-N

>  <placement_batch>  (255) 
CpKRS_FrAncestor_bulkdock_iter1_cluster_best5

>  <alias>  (255) 
SOKMIUPECOWOEQ-WDEREUQCSA-N-P13

>  <name>  (255) 
SOKMIUPECOWOEQ-WDEREUQCSA-N-P13

>  <smiles>  (255) 
C[C@H]1CC[C@@H](NC(=O)c2cccn(C3CC3)c2=O)C1

>  <subsites>  (255) 


>  <distance_score>  (255) 
0.586159

$$$$
HYSPEPWMRGIKLY-LBPRGKRZSA-N-P12
     RDKit          3D

 19 21  0  0  0  0  0  0  0  0999 V2000
    5.2440  -14.0196   24.2312 O   0  0  0  0  0  0  0  0  0  0  0  0
    4.4481  -13.2617   24.6166 C   0  0  0  0  0  0  0  0  0  0  0  0
    4.2829  -11.7544   24.3323 N   0  0  0  0  0  0  0  0  0  0  0  0
    5.1134  -10.8505   23.5941 C   0  0  1  0  0  0  0  0  0  0  0  0
    4.8044  -10.8793   22.0992 C   0  0  0  0  0  0  0  0  0  0  0  0
    5.2652   -9.5137   21.6272 C   0  0  0  0  0  0  0  0  0  0  0  0
    4.7992   -8.6285   22.7556 C   0  0  0  0  0  0  0  0  0  0  0  0
    3.4601   -8.3898   22.6230 F   0  0  0  0  0  0  0  0  0  0  0  0
    5.4057   -7.4289   22.7533 F   0  0  0  0  0  0  0  0  0  0  0  0
    5.0305   -9.3912   24.0413 C   0  0  0  0  0  0  0  0  0  0  0  0
    3.3657  -13.7499   25.4992 C   0  0  0  0  0  0  0  0  0  0  0  0
    3.6726  -14.6051   26.5428 C   0  0  0  0  0  0  0  0  0  0  0  0
    2.7592  -14.9922   27.4589 N   0  0  0  0  0  0  0  0  0  0  0  0
    1.4978  -14.5047   27.3103 C   0  0  0  0  0  0  0  0  0  0  0  0
    1.0559  -13.7066   26.2546 C   0  0  0  0  0  0  0  0  0  0  0  0
   -0.3519  -13.1911   26.0917 C   0  0  0  0  0  0  0  0  0  0  0  0
   -1.2106  -13.8133   25.0096 C   0  0  0  0  0  0  0  0  0  0  0  0
   -1.5831  -13.9696   26.4505 C   0  0  0  0  0  0  0  0  0  0  0  0
    2.0402  -13.3413   25.3315 C   0  0  0  0  0  0  0  0  0  0  0  0
  1  2  2  0
  2  3  1  0
  4  3  1  1
  4  5  1  0
  5  6  1  0
  6  7  1  0
  7  8  1  0
  7  9  1  0
  7 10  1  0
  2 11  1  0
 11 12  2  0
 12 13  1  0
 13 14  2  0
 14 15  1  0
 15 16  1  0
 16 17  1  0
 17 18  1  0
 15 19  2  0
 10  4  1  0
 19 11  1  0
 18 16  1  0
M  END
>  <inspiration_score>  (256) 
0.701

>  <HIPPO Pose ID>  (256) 
1384687

>  <ref_pdb>  (256) 
x0421b

>  <ref_mols>  (256) 
x0421b

>  <HIPPO Compound ID>  (256) 
57681

>  <energy_score>  (256) 
-1467.043199

>  <tags>  (256) 
CpKRS_FrAncestor_bulkdock_iter1,CpKRS_FrAncestor_bulkdock_iter1_cluster_best5,fragmenstein_placed,CpKRS_FrAncestor_bulkdock_iter1_exported,BulkDock Fragalysis export

>  <inchikey>  (256) 
HYSPEPWMRGIKLY-UHFFFAOYSA-N

>  <placement_batch>  (256) 
CpKRS_FrAncestor_bulkdock_iter1_cluster_best5

>  <alias>  (256) 
HYSPEPWMRGIKLY-LBPRGKRZSA-N-P12

>  <name>  (256) 
HYSPEPWMRGIKLY-LBPRGKRZSA-N-P12

>  <smiles>  (256) 
O=C(N[C@H]1CCC(F)(F)C1)c1cncc(C2CC2)c1

>  <subsites>  (256) 


>  <distance_score>  (256) 
0.662122

$$$$
C60570-P8
     RDKit          3D

 19 21  0  0  0  0  0  0  0  0999 V2000
    2.1617    7.2123   40.5087 O   0  0  0  0  0  0  0  0  0  0  0  0
    3.0520    6.3559   41.2525 S   0  0  0  0  0  0  0  0  0  0  0  0
    3.1229    4.9299   41.0648 O   0  0  0  0  0  0  0  0  0  0  0  0
    4.5785    7.0338   41.1124 N   0  0  0  0  0  0  0  0  0  0  0  0
    5.7055    6.4298   40.3185 C   0  0  0  0  0  0  0  0  0  0  0  0
    6.1837    5.0143   40.7074 C   0  0  0  0  0  0  0  0  0  0  0  0
    5.4897    4.4739   39.4555 C   0  0  0  0  0  0  0  0  0  0  0  0
    5.4079    5.9067   38.9112 C   0  0  0  0  0  0  0  0  0  0  0  0
    2.7719    6.5627   42.8863 N   0  0  0  0  0  0  0  0  0  0  0  0
    2.4516    7.9228   43.3773 C   0  0  0  0  0  0  0  0  0  0  0  0
    1.7140    7.8886   44.7253 C   0  0  0  0  0  0  0  0  0  0  0  0
    2.5452    7.4709   45.8088 O   0  0  0  0  0  0  0  0  0  0  0  0
    2.5413    6.1231   45.9565 C   0  0  0  0  0  0  0  0  0  0  0  0
    2.0764    5.6515   47.1702 C   0  0  0  0  0  0  0  0  0  0  0  0
    2.2097    4.3072   47.4759 C   0  0  0  0  0  0  0  0  0  0  0  0
    2.8267    3.4494   46.5783 C   0  0  0  0  0  0  0  0  0  0  0  0
    3.2617    3.9227   45.3459 C   0  0  0  0  0  0  0  0  0  0  0  0
    3.1039    5.2708   45.0138 C   0  0  0  0  0  0  0  0  0  0  0  0
    3.6774    5.7983   43.7393 C   0  0  0  0  0  0  0  0  0  0  0  0
  1  2  2  0
  2  3  2  0
  2  4  1  0
  4  5  1  0
  5  6  1  0
  6  7  1  0
  7  8  1  0
  2  9  1  0
  9 10  1  0
 10 11  1  0
 11 12  1  0
 12 13  1  0
 13 14  2  0
 14 15  1  0
 15 16  2  0
 16 17  1  0
 17 18  2  0
 18 19  1  0
  8  5  1  0
 19  9  1  0
 18 13  1  0
M  END
>  <inspiration_score>  (257) 
0.453

>  <HIPPO Pose ID>  (257) 
1395305

>  <ref_pdb>  (257) 
x0421a

>  <ref_mols>  (257) 
x0419b

>  <HIPPO Compound ID>  (257) 
60570

>  <energy_score>  (257) 
-66.106831

>  <tags>  (257) 
CpKRS_FrAncestor_bulkdock_iter1,CpKRS_FrAncestor_bulkdock_iter1_cluster_best5,fragmenstein_placed,CpKRS_FrAncestor_bulkdock_iter1_exported,BulkDock Fragalysis export

>  <inchikey>  (257) 
FFQPXMLSLAWMDC-UHFFFAOYSA-N

>  <placement_batch>  (257) 
CpKRS_FrAncestor_bulkdock_iter1_cluster_best5

>  <alias>  (257) 
C60570-P8

>  <name>  (257) 
C60570-P8

>  <smiles>  (257) 
O=S(=O)(NC1CCC1)N1CCOc2ccccc2C1

>  <subsites>  (257) 


>  <distance_score>  (257) 
0.993112

$$$$
C60640-P1
     RDKit          3D

 19 21  0  0  0  0  0  0  0  0999 V2000
    5.4990  -14.2419   25.1208 O   0  0  0  0  0  0  0  0  0  0  0  0
    4.2955  -14.4268   25.1905 C   0  0  0  0  0  0  0  0  0  0  0  0
    3.5946  -15.4662   26.0088 C   0  0  1  0  0  0  0  0  0  0  0  0
    4.1260  -15.4532   27.4215 C   0  0  0  0  0  0  0  0  0  0  0  0
    3.4720  -16.4898   28.3058 C   0  0  0  0  0  0  0  0  0  0  0  0
    2.0100  -15.9111   29.2012 S   0  0  0  0  0  0  0  0  0  0  0  0
    1.1005  -14.9638   27.9692 C   0  0  0  0  0  0  0  0  0  0  0  0
    1.0556  -15.5995   26.5990 C   0  0  0  0  0  0  0  0  0  0  0  0
    2.1783  -15.0046   25.8435 C   0  0  0  0  0  0  0  0  0  0  0  0
    2.0169  -13.9987   25.0382 N   0  0  0  0  0  0  0  0  0  0  0  0
    3.2732  -13.7021   24.5856 N   0  0  0  0  0  0  0  0  0  0  0  0
    3.5094  -12.6103   23.6823 C   0  0  0  0  0  0  0  0  0  0  0  0
    3.8736  -11.3415   24.4427 C   0  0  0  0  0  0  0  0  0  0  0  0
    4.3403  -10.1707   23.6182 C   0  0  0  0  0  0  0  0  0  0  0  0
    4.7385   -9.0029   24.2860 C   0  0  0  0  0  0  0  0  0  0  0  0
    5.2054   -7.9011   23.5748 C   0  0  0  0  0  0  0  0  0  0  0  0
    5.2509   -7.9474   22.1863 C   0  0  0  0  0  0  0  0  0  0  0  0
    4.8647   -9.1004   21.5152 C   0  0  0  0  0  0  0  0  0  0  0  0
    4.4219  -10.2092   22.2253 C   0  0  0  0  0  0  0  0  0  0  0  0
  1  2  2  0
  2  3  1  0
  3  4  1  1
  4  5  1  0
  5  6  1  0
  6  7  1  0
  7  8  1  0
  8  9  1  0
  9 10  2  0
 10 11  1  0
 11 12  1  0
 12 13  1  0
 13 14  1  0
 14 15  2  0
 15 16  1  0
 16 17  2  0
 17 18  1  0
 18 19  2  0
 11  2  1  0
 19 14  1  0
  9  3  1  0
M  END
>  <inspiration_score>  (258) 
0.749

>  <HIPPO Pose ID>  (258) 
1395519

>  <ref_pdb>  (258) 
x0421a

>  <ref_mols>  (258) 
x0501a

>  <HIPPO Compound ID>  (258) 
60640

>  <energy_score>  (258) 
-21.417618

>  <tags>  (258) 
CpKRS_FrAncestor_bulkdock_iter1,CpKRS_FrAncestor_bulkdock_iter1_cluster_best5,fragmenstein_placed,CpKRS_FrAncestor_bulkdock_iter1_exported,BulkDock Fragalysis export

>  <inchikey>  (258) 
YNLDNUNUAXOXMJ-UHFFFAOYSA-N

>  <placement_batch>  (258) 
CpKRS_FrAncestor_bulkdock_iter1_cluster_best5

>  <alias>  (258) 
C60640-P1

>  <name>  (258) 
C60640-P1

>  <smiles>  (258) 
O=C1[C@H]2CCSCCC2=NN1CCc1ccccc1

>  <subsites>  (258) 


>  <distance_score>  (258) 
0.575341

$$$$
C62670-P64
     RDKit          3D

 19 20  0  0  0  0  0  0  0  0999 V2000
    2.3525  -15.7037   28.5586 C   0  0  0  0  0  0  0  0  0  0  0  0
    2.8889  -15.1088   27.2925 C   0  0  0  0  0  0  0  0  0  0  0  0
    4.1996  -15.3881   26.8924 C   0  0  0  0  0  0  0  0  0  0  0  0
    4.6871  -14.9273   25.6713 C   0  0  0  0  0  0  0  0  0  0  0  0
    3.8622  -14.1904   24.8155 C   0  0  0  0  0  0  0  0  0  0  0  0
    4.3588  -13.8034   23.4523 C   0  0  0  0  0  0  0  0  0  0  0  0
    4.6523  -12.4097   23.3367 N   0  0  0  0  0  0  0  0  0  0  0  0
    4.9390  -11.5526   22.1008 C   0  0  0  0  0  0  0  0  0  0  0  0
    4.9074  -11.8247   20.9718 O   0  0  0  0  0  0  0  0  0  0  0  0
    5.2019  -10.1243   22.4697 C   0  0  0  0  0  0  0  0  0  0  0  0
    5.1518   -9.2110   21.4858 C   0  0  0  0  0  0  0  0  0  0  0  0
    5.3842   -7.8247   21.7491 C   0  0  0  0  0  0  0  0  0  0  0  0
    5.5780   -7.4029   22.9941 C   0  0  0  0  0  0  0  0  0  0  0  0
    5.6654   -8.2864   24.0276 N   0  0  0  0  0  0  0  0  0  0  0  0
    6.1168   -7.7618   25.3016 C   0  0  0  0  0  0  0  0  0  0  0  0
    5.5511   -9.6525   23.8256 C   0  0  0  0  0  0  0  0  0  0  0  0
    5.7111  -10.4863   24.7015 O   0  0  0  0  0  0  0  0  0  0  0  0
    2.5624  -13.8692   25.2337 C   0  0  0  0  0  0  0  0  0  0  0  0
    2.0765  -14.3325   26.4600 C   0  0  0  0  0  0  0  0  0  0  0  0
  1  2  1  0
  2  3  2  0
  3  4  1  0
  4  5  2  0
  5  6  1  0
  6  7  1  0
  7  8  1  0
  8  9  2  0
  8 10  1  0
 10 11  2  0
 11 12  1  0
 12 13  2  0
 13 14  1  0
 14 15  1  0
 14 16  1  0
 16 17  2  0
  5 18  1  0
 18 19  2  0
 19  2  1  0
 16 10  1  0
M  END
>  <inspiration_score>  (259) 
0.632

>  <HIPPO Pose ID>  (259) 
1401515

>  <ref_pdb>  (259) 
x0421a

>  <ref_mols>  (259) 
x0787b

>  <HIPPO Compound ID>  (259) 
62670

>  <energy_score>  (259) 
-241.416323

>  <tags>  (259) 
CpKRS_FrAncestor_bulkdock_iter1,CpKRS_FrAncestor_bulkdock_iter1_cluster_best5,fragmenstein_placed,CpKRS_FrAncestor_bulkdock_iter1_exported,BulkDock Fragalysis export

>  <inchikey>  (259) 
SPZVTEXDDBAERE-UHFFFAOYSA-N

>  <placement_batch>  (259) 
CpKRS_FrAncestor_bulkdock_iter1_cluster_best5

>  <alias>  (259) 
C62670-P64

>  <name>  (259) 
C62670-P64

>  <smiles>  (259) 
Cc1ccc(CNC(=O)c2cccn(C)c2=O)cc1

>  <subsites>  (259) 


>  <distance_score>  (259) 
0.86291

$$$$
C63160-P63
     RDKit          3D

 19 20  0  0  0  0  0  0  0  0999 V2000
    3.1242  -16.7565   27.8304 C   0  0  0  0  0  0  0  0  0  0  0  0
    2.7816  -15.5669   26.9899 C   0  0  0  0  0  0  0  0  0  0  0  0
    1.5312  -14.9558   27.0943 C   0  0  0  0  0  0  0  0  0  0  0  0
    1.1986  -13.8864   26.2670 C   0  0  0  0  0  0  0  0  0  0  0  0
    2.1123  -13.4268   25.3200 C   0  0  0  0  0  0  0  0  0  0  0  0
    3.3859  -14.0067   25.2085 C   0  0  0  0  0  0  0  0  0  0  0  0
    4.3470  -13.5526   24.1333 C   0  0  0  0  0  0  0  0  0  0  0  0
    4.4091  -12.1226   24.1004 N   0  0  0  0  0  0  0  0  0  0  0  0
    4.4283  -11.1461   22.9023 C   0  0  0  0  0  0  0  0  0  0  0  0
    4.3194  -11.3496   21.7615 O   0  0  0  0  0  0  0  0  0  0  0  0
    4.5165   -9.7983   23.4935 C   0  0  0  0  0  0  0  0  0  0  0  0
    3.4448   -9.3841   24.1857 C   0  0  0  0  0  0  0  0  0  0  0  0
    3.5342   -8.2032   24.9906 C   0  0  0  0  0  0  0  0  0  0  0  0
    4.7133   -7.6140   25.1946 C   0  0  0  0  0  0  0  0  0  0  0  0
    5.8173   -8.0049   24.4740 N   0  0  0  0  0  0  0  0  0  0  0  0
    7.0655   -7.3079   24.6898 C   0  0  0  0  0  0  0  0  0  0  0  0
    5.7396   -8.9675   23.4600 C   0  0  0  0  0  0  0  0  0  0  0  0
    6.5846   -9.1305   22.5928 O   0  0  0  0  0  0  0  0  0  0  0  0
    3.7117  -15.0744   26.0588 C   0  0  0  0  0  0  0  0  0  0  0  0
  1  2  1  0
  2  3  2  0
  3  4  1  0
  4  5  2  0
  5  6  1  0
  6  7  1  0
  7  8  1  0
  8  9  1  0
  9 10  2  0
  9 11  1  0
 11 12  2  0
 12 13  1  0
 13 14  2  0
 14 15  1  0
 15 16  1  0
 15 17  1  0
 17 18  2  0
  6 19  2  0
 19  2  1  0
 17 11  1  0
M  END
>  <inspiration_score>  (260) 
0.528

>  <HIPPO Pose ID>  (260) 
1402948

>  <ref_pdb>  (260) 
x0419a

>  <ref_mols>  (260) 
x0787a

>  <HIPPO Compound ID>  (260) 
63160

>  <energy_score>  (260) 
-236.008086

>  <tags>  (260) 
CpKRS_FrAncestor_bulkdock_iter1,CpKRS_FrAncestor_bulkdock_iter1_cluster_best5,fragmenstein_placed,CpKRS_FrAncestor_bulkdock_iter1_exported,BulkDock Fragalysis export

>  <inchikey>  (260) 
JYEAWQCOVZSGOS-UHFFFAOYSA-N

>  <placement_batch>  (260) 
CpKRS_FrAncestor_bulkdock_iter1_cluster_best5

>  <alias>  (260) 
C63160-P63

>  <name>  (260) 
C63160-P63

>  <smiles>  (260) 
Cc1cccc(CNC(=O)c2cccn(C)c2=O)c1

>  <subsites>  (260) 


>  <distance_score>  (260) 
0.954983

$$$$
C63166-P64
     RDKit          3D

 19 20  0  0  0  0  0  0  0  0999 V2000
    3.4140  -16.1474   28.8065 C   0  0  0  0  0  0  0  0  0  0  0  0
    2.9901  -15.2272   27.7008 C   0  0  0  0  0  0  0  0  0  0  0  0
    1.7301  -14.6276   27.7408 C   0  0  0  0  0  0  0  0  0  0  0  0
    1.3168  -13.7805   26.7133 C   0  0  0  0  0  0  0  0  0  0  0  0
    2.1536  -13.5313   25.6255 C   0  0  0  0  0  0  0  0  0  0  0  0
    3.4213  -14.1221   25.5546 C   0  0  0  0  0  0  0  0  0  0  0  0
    4.2945  -13.9272   24.3441 C   0  0  0  0  0  0  0  0  0  0  0  0
    4.5336  -12.5492   23.9968 N   0  0  0  0  0  0  0  0  0  0  0  0
    5.2134  -11.9325   22.7582 C   0  0  0  0  0  0  0  0  0  0  0  0
    5.7540  -12.4422   21.8627 O   0  0  0  0  0  0  0  0  0  0  0  0
    5.1900  -10.4376   22.8305 C   0  0  0  0  0  0  0  0  0  0  0  0
    5.4530   -9.7598   23.9605 C   0  0  0  0  0  0  0  0  0  0  0  0
    5.5681   -8.3779   24.0812 N   0  0  0  0  0  0  0  0  0  0  0  0
    6.1182   -7.7516   25.2850 C   0  0  0  0  0  0  0  0  0  0  0  0
    5.4916   -7.6357   22.9301 C   0  0  0  0  0  0  0  0  0  0  0  0
    5.3156   -8.1570   21.7212 C   0  0  0  0  0  0  0  0  0  0  0  0
    5.1347   -9.6147   21.5931 C   0  0  0  0  0  0  0  0  0  0  0  0
    4.9229  -10.0664   20.4762 O   0  0  0  0  0  0  0  0  0  0  0  0
    3.8247  -14.9781   26.5973 C   0  0  0  0  0  0  0  0  0  0  0  0
  1  2  1  0
  2  3  2  0
  3  4  1  0
  4  5  2  0
  5  6  1  0
  6  7  1  0
  7  8  1  0
  8  9  1  0
  9 10  2  0
  9 11  1  0
 11 12  2  0
 12 13  1  0
 13 14  1  0
 13 15  1  0
 15 16  2  0
 16 17  1  0
 17 18  2  0
  6 19  2  0
 19  2  1  0
 17 11  1  0
M  END
>  <inspiration_score>  (261) 
0.666

>  <HIPPO Pose ID>  (261) 
1402961

>  <ref_pdb>  (261) 
x0419a

>  <ref_mols>  (261) 
x0787b

>  <HIPPO Compound ID>  (261) 
63166

>  <energy_score>  (261) 
-238.421037

>  <tags>  (261) 
CpKRS_FrAncestor_bulkdock_iter1,CpKRS_FrAncestor_bulkdock_iter1_cluster_best5,fragmenstein_placed,CpKRS_FrAncestor_bulkdock_iter1_exported,BulkDock Fragalysis export

>  <inchikey>  (261) 
NYAFCRPWZFIIID-UHFFFAOYSA-N

>  <placement_batch>  (261) 
CpKRS_FrAncestor_bulkdock_iter1_cluster_best5

>  <alias>  (261) 
C63166-P64

>  <name>  (261) 
C63166-P64

>  <smiles>  (261) 
Cc1cccc(CNC(=O)c2cn(C)ccc2=O)c1

>  <subsites>  (261) 


>  <distance_score>  (261) 
0.710956

$$$$
C72335-P1
     RDKit          3D

 19 21  0  0  0  0  0  0  0  0999 V2000
    2.9620  -17.2491   28.7166 F   0  0  0  0  0  0  0  0  0  0  0  0
    3.1177  -15.9065   28.6665 C   0  0  0  0  0  0  0  0  0  0  0  0
    3.7421  -15.5727   29.8057 F   0  0  0  0  0  0  0  0  0  0  0  0
    1.7796  -15.2150   28.5076 C   0  0  0  0  0  0  0  0  0  0  0  0
    1.6177  -14.8846   27.1127 O   0  0  0  0  0  0  0  0  0  0  0  0
    2.7688  -15.4286   26.4322 C   0  0  1  0  0  0  0  0  0  0  0  0
    3.1265  -14.6636   25.1503 C   0  0  0  0  0  0  0  0  0  0  0  0
    3.5409  -13.2461   25.2225 N   0  0  0  0  0  0  0  0  0  0  0  0
    4.7417  -13.0077   24.3954 C   0  0  0  0  0  0  0  0  0  0  0  0
    4.5280  -12.4871   22.9564 C   0  0  0  0  0  0  0  0  0  0  0  0
    4.4646  -10.9754   22.9419 C   0  0  0  0  0  0  0  0  0  0  0  0
    5.2807  -10.2694   22.0459 C   0  0  0  0  0  0  0  0  0  0  0  0
    5.4601   -8.8945   22.1590 C   0  0  0  0  0  0  0  0  0  0  0  0
    4.8355   -8.2057   23.1843 C   0  0  0  0  0  0  0  0  0  0  0  0
    3.9460   -8.8784   24.0191 C   0  0  0  0  0  0  0  0  0  0  0  0
    3.7132  -10.2602   23.8817 C   0  0  0  0  0  0  0  0  0  0  0  0
    2.6683  -10.8719   24.7856 C   0  0  0  0  0  0  0  0  0  0  0  0
    2.4150  -12.3841   24.8155 C   0  0  0  0  0  0  0  0  0  0  0  0
    3.8892  -15.5202   27.4430 C   0  0  0  0  0  0  0  0  0  0  0  0
  1  2  1  0
  2  3  1  0
  2  4  1  0
  4  5  1  0
  5  6  1  0
  6  7  1  6
  7  8  1  0
  8  9  1  0
  9 10  1  0
 10 11  1  0
 11 12  2  0
 12 13  1  0
 13 14  2  0
 14 15  1  0
 15 16  2  0
 16 17  1  0
 17 18  1  0
  6 19  1  0
 19  2  1  0
 18  8  1  0
 16 11  1  0
M  END
>  <inspiration_score>  (262) 
0.531

>  <HIPPO Pose ID>  (262) 
1431596

>  <ref_pdb>  (262) 
x0502c

>  <ref_mols>  (262) 
x0501a

>  <HIPPO Compound ID>  (262) 
72335

>  <energy_score>  (262) 
-31.620445

>  <tags>  (262) 
CpKRS_FrAncestor_bulkdock_iter1,CpKRS_FrAncestor_bulkdock_iter1_cluster_best5,fragmenstein_placed,CpKRS_FrAncestor_bulkdock_iter1_exported,BulkDock Fragalysis export

>  <inchikey>  (262) 
YSVMJQNASSTWGX-UHFFFAOYSA-N

>  <placement_batch>  (262) 
CpKRS_FrAncestor_bulkdock_iter1_cluster_best5

>  <alias>  (262) 
C72335-P1

>  <name>  (262) 
C72335-P1

>  <smiles>  (262) 
FC1(F)CO[C@@H](CN2CCc3ccccc3CC2)C1

>  <subsites>  (262) 


>  <distance_score>  (262) 
0.959724

$$$$
C72492-P2
     RDKit          3D

 19 22  0  0  0  0  0  0  0  0999 V2000
    1.2100  -15.0466   28.3315 O   0  0  0  0  0  0  0  0  0  0  0  0
    2.2515  -15.4626   27.8691 C   0  0  0  0  0  0  0  0  0  0  0  0
    3.3335  -16.3897   28.4470 C   0  0  0  0  0  0  0  0  0  0  0  0
    4.2416  -15.9225   27.3023 C   0  0  0  0  0  0  0  0  0  0  0  0
    3.0239  -15.3645   26.5038 C   0  0  2  0  0  0  0  0  0  0  0  0
    3.3810  -14.0144   26.0038 N   0  0  0  0  0  0  0  0  0  0  0  0
    4.5013  -14.1368   25.0743 C   0  0  0  0  0  0  0  0  0  0  0  0
    4.9605  -12.7768   24.5892 C   0  0  0  0  0  0  0  0  0  0  0  0
    3.8630  -11.9013   23.9729 C   0  0  0  0  0  0  0  0  0  0  0  0
    3.8739  -12.3013   22.5022 C   0  0  0  0  0  0  0  0  0  0  0  0
    4.5470  -11.4211   21.7457 C   0  0  0  0  0  0  0  0  0  0  0  0
    4.7817  -10.2313   22.5234 C   0  0  0  0  0  0  0  0  0  0  0  0
    5.2846   -9.0084   22.1150 C   0  0  0  0  0  0  0  0  0  0  0  0
    5.3036   -7.9674   23.0392 C   0  0  0  0  0  0  0  0  0  0  0  0
    4.8232   -8.1629   24.3379 C   0  0  0  0  0  0  0  0  0  0  0  0
    4.3226   -9.4064   24.7281 C   0  0  0  0  0  0  0  0  0  0  0  0
    4.3262  -10.4545   23.8241 C   0  0  0  0  0  0  0  0  0  0  0  0
    2.5286  -12.0483   24.7155 C   0  0  0  0  0  0  0  0  0  0  0  0
    2.2390  -13.4613   25.2528 C   0  0  0  0  0  0  0  0  0  0  0  0
  1  2  2  0
  2  3  1  0
  3  4  1  0
  4  5  1  0
  5  6  1  1
  6  7  1  0
  7  8  1  0
  8  9  1  0
  9 10  1  0
 10 11  2  0
 11 12  1  0
 12 13  2  0
 13 14  1  0
 14 15  2  0
 15 16  1  0
 16 17  2  0
  9 18  1  0
 18 19  1  0
  5  2  1  0
 19  6  1  0
 17  9  1  0
 17 12  1  0
M  END
>  <inspiration_score>  (263) 
0.569

>  <HIPPO Pose ID>  (263) 
1432009

>  <ref_pdb>  (263) 
x0502c

>  <ref_mols>  (263) 
x0501b

>  <HIPPO Compound ID>  (263) 
72492

>  <energy_score>  (263) 
-25.940198

>  <tags>  (263) 
CpKRS_FrAncestor_bulkdock_iter1,CpKRS_FrAncestor_bulkdock_iter1_cluster_best5,fragmenstein_placed,CpKRS_FrAncestor_bulkdock_iter1_exported,BulkDock Fragalysis export

>  <inchikey>  (263) 
ICZDIYBGBGIJOB-UHFFFAOYSA-N

>  <placement_batch>  (263) 
CpKRS_FrAncestor_bulkdock_iter1_cluster_best5

>  <alias>  (263) 
C72492-P2

>  <name>  (263) 
C72492-P2

>  <smiles>  (263) 
O=C1CC[C@@H]1N1CCC2(C=Cc3ccccc32)CC1

>  <subsites>  (263) 


>  <distance_score>  (263) 
0.86484

$$$$
C72499-P24
     RDKit          3D

 19 21  0  0  0  0  0  0  0  0999 V2000
    3.9009    2.2391   46.3397 F   0  0  0  0  0  0  0  0  0  0  0  0
    3.8179    3.1745   45.3826 C   0  0  0  0  0  0  0  0  0  0  0  0
    3.3272    4.4131   45.7242 C   0  0  0  0  0  0  0  0  0  0  0  0
    3.3270    5.4060   44.7485 C   0  0  0  0  0  0  0  0  0  0  0  0
    3.7879    5.1548   43.4451 C   0  0  0  0  0  0  0  0  0  0  0  0
    3.8953    6.1833   42.5218 N   0  0  0  0  0  0  0  0  0  0  0  0
    2.8216    7.1890   42.4396 C   0  0  0  0  0  0  0  0  0  0  0  0
    3.4257    8.5393   42.0251 C   0  0  0  0  0  0  0  0  0  0  0  0
    4.1864    8.5320   40.7646 N   0  0  0  0  0  0  0  0  0  0  0  0
    3.3617    8.7995   39.5839 C   0  0  0  0  0  0  0  0  0  0  0  0
    2.9332   10.2860   39.6147 C   0  0  1  0  0  0  0  0  0  0  0  0
    3.4294   11.1568   38.4970 C   0  0  0  0  0  0  0  0  0  0  0  0
    2.5317   12.1020   38.1918 C   0  0  0  0  0  0  0  0  0  0  0  0
    1.2826   11.9421   38.9982 C   0  0  0  0  0  0  0  0  0  0  0  0
    1.4200   10.5013   39.4971 C   0  0  0  0  0  0  0  0  0  0  0  0
    5.0763    7.3634   40.6591 C   0  0  0  0  0  0  0  0  0  0  0  0
    4.5837    6.0044   41.2237 C   0  0  0  0  0  0  0  0  0  0  0  0
    4.2246    3.8419   43.2235 C   0  0  0  0  0  0  0  0  0  0  0  0
    4.2588    2.8516   44.1547 N   0  0  0  0  0  0  0  0  0  0  0  0
  1  2  1  0
  2  3  2  0
  3  4  1  0
  4  5  2  0
  5  6  1  0
  6  7  1  0
  7  8  1  0
  8  9  1  0
  9 10  1  0
 11 10  1  6
 11 12  1  0
 12 13  2  0
 13 14  1  0
 14 15  1  0
  9 16  1  0
 16 17  1  0
  5 18  1  0
 18 19  2  0
 19  2  1  0
 17  6  1  0
 15 11  1  0
M  END
>  <inspiration_score>  (264) 
0.745

>  <HIPPO Pose ID>  (264) 
1432027

>  <ref_pdb>  (264) 
x0502c

>  <ref_mols>  (264) 
x0479c

>  <HIPPO Compound ID>  (264) 
72499

>  <energy_score>  (264) 
-46.50588

>  <tags>  (264) 
CpKRS_FrAncestor_bulkdock_iter1,CpKRS_FrAncestor_bulkdock_iter1_cluster_best5,fragmenstein_placed,CpKRS_FrAncestor_bulkdock_iter1_exported,BulkDock Fragalysis export

>  <inchikey>  (264) 
ZVNMXLMDGOFKFG-UHFFFAOYSA-N

>  <placement_batch>  (264) 
CpKRS_FrAncestor_bulkdock_iter1_cluster_best5

>  <alias>  (264) 
C72499-P24

>  <name>  (264) 
C72499-P24

>  <smiles>  (264) 
Fc1ccc(N2CCN(C[C@H]3C=CCC3)CC2)cn1

>  <subsites>  (264) 


>  <distance_score>  (264) 
0.481027

$$$$
BZPALDYTLGUYGN-UHFFFAOYSA-N-P61
     RDKit          3D

 19 20  0  0  0  0  0  0  0  0999 V2000
   -0.2667  -13.0047   24.0268 C   0  0  0  0  0  0  0  0  0  0  0  0
    0.2363  -13.1370   25.4092 C   0  0  0  0  0  0  0  0  0  0  0  0
   -0.5026  -13.0026   26.5534 C   0  0  0  0  0  0  0  0  0  0  0  0
    0.2669  -13.2553   27.6350 O   0  0  0  0  0  0  0  0  0  0  0  0
    1.5460  -13.5444   27.2380 N   0  0  0  0  0  0  0  0  0  0  0  0
    1.5237  -13.5083   25.9021 C   0  0  0  0  0  0  0  0  0  0  0  0
    2.6711  -14.0517   25.1549 C   0  0  0  0  0  0  0  0  0  0  0  0
    3.4763  -13.0758   24.4988 N   0  0  0  0  0  0  0  0  0  0  0  0
    3.1624  -12.1634   23.3069 C   0  0  0  0  0  0  0  0  0  0  0  0
    2.1739  -12.0065   22.7189 O   0  0  0  0  0  0  0  0  0  0  0  0
    4.3750  -11.5791   22.9638 N   0  0  0  0  0  0  0  0  0  0  0  0
    5.2292  -12.3047   22.0677 C   0  0  0  0  0  0  0  0  0  0  0  0
    4.7476  -10.2816   23.5017 C   0  0  0  0  0  0  0  0  0  0  0  0
    5.4151   -9.3655   22.4756 C   0  0  0  0  0  0  0  0  0  0  0  0
    5.1469   -7.8991   22.7864 C   0  0  0  0  0  0  0  0  0  0  0  0
    5.8089   -7.3325   24.0386 C   0  0  0  0  0  0  0  0  0  0  0  0
    5.5618   -8.0805   25.3391 C   0  0  0  0  0  0  0  0  0  0  0  0
    6.3311   -9.3857   25.3682 C   0  0  0  0  0  0  0  0  0  0  0  0
    5.5899  -10.5458   24.7435 C   0  0  0  0  0  0  0  0  0  0  0  0
  1  2  1  0
  2  3  2  0
  3  4  1  0
  4  5  1  0
  5  6  2  0
  6  7  1  0
  7  8  1  0
  8  9  1  0
  9 10  2  0
  9 11  1  0
 11 12  1  0
 11 13  1  0
 13 14  1  0
 14 15  1  0
 15 16  1  0
 16 17  1  0
 17 18  1  0
 18 19  1  0
  6  2  1  0
 19 13  1  0
M  END
>  <inspiration_score>  (265) 
0.464

>  <HIPPO Pose ID>  (265) 
1441031

>  <ref_pdb>  (265) 
x0502b

>  <ref_mols>  (265) 
x0759b

>  <HIPPO Compound ID>  (265) 
75263

>  <energy_score>  (265) 
-123.91347

>  <tags>  (265) 
CpKRS_FrAncestor_bulkdock_iter1,CpKRS_FrAncestor_bulkdock_iter1_cluster_best5,fragmenstein_placed,CpKRS_FrAncestor_bulkdock_iter1_exported,BulkDock Fragalysis export

>  <inchikey>  (265) 
BZPALDYTLGUYGN-UHFFFAOYSA-N

>  <placement_batch>  (265) 
CpKRS_FrAncestor_bulkdock_iter1_cluster_best5

>  <alias>  (265) 
BZPALDYTLGUYGN-UHFFFAOYSA-N-P61

>  <name>  (265) 
BZPALDYTLGUYGN-UHFFFAOYSA-N-P61

>  <smiles>  (265) 
Cc1conc1CNC(=O)N(C)C1CCCCCC1

>  <subsites>  (265) 


>  <distance_score>  (265) 
0.863381

$$$$
OZYHDFCMHGXSPP-UHFFFAOYSA-N-P2
     RDKit          3D

 14 15  0  0  0  0  0  0  0  0999 V2000
    4.0538  -14.4295   25.2841 C   0  0  0  0  0  0  0  0  0  0  0  0
    3.3724  -14.7882   26.5136 N   0  0  0  0  0  0  0  0  0  0  0  0
    2.0627  -14.3760   26.7756 C   0  0  0  0  0  0  0  0  0  0  0  0
    1.3184  -13.5529   25.8228 C   0  0  0  0  0  0  0  0  0  0  0  0
    1.7069  -12.3175   25.4535 C   0  0  0  0  0  0  0  0  0  0  0  0
    0.9777  -11.4871   24.4367 C   0  0  0  0  0  0  0  0  0  0  0  0
   -0.0080  -12.2459   23.7312 O   0  0  0  0  0  0  0  0  0  0  0  0
   -0.8124  -13.0181   24.6142 C   0  0  0  0  0  0  0  0  0  0  0  0
    0.0398  -14.1158   25.2499 C   0  0  0  0  0  0  0  0  0  0  0  0
    1.4835  -14.7307   27.9355 C   0  0  0  0  0  0  0  0  0  0  0  0
    2.1766  -15.5197   28.9108 C   0  0  0  0  0  0  0  0  0  0  0  0
    3.4324  -15.9158   28.6905 C   0  0  0  0  0  0  0  0  0  0  0  0
    4.1276  -15.5013   27.4450 C   0  0  0  0  0  0  0  0  0  0  0  0
    5.3173  -15.7875   27.3196 O   0  0  0  0  0  0  0  0  0  0  0  0
  1  2  1  0
  2  3  1  0
  3  4  1  0
  4  5  2  0
  5  6  1  0
  6  7  1  0
  7  8  1  0
  8  9  1  0
  3 10  2  0
 10 11  1  0
 11 12  2  0
 12 13  1  0
 13 14  2  0
 13  2  1  0
  9  4  1  0
M  END
>  <inspiration_score>  (266) 
0.192

>  <HIPPO Pose ID>  (266) 
1450581

>  <ref_pdb>  (266) 
x0502c

>  <ref_mols>  (266) 
x0501b

>  <HIPPO Compound ID>  (266) 
453992

>  <energy_score>  (266) 
-43.179033

>  <tags>  (266) 
CpKRS_FrAncestor_bulkdock_iter1,CpKRS_FrAncestor_bulkdock_iter1_cluster_best5,fragmenstein_placed,CpKRS_FrAncestor_bulkdock_iter1_exported,BulkDock Fragalysis export

>  <inchikey>  (266) 
OZYHDFCMHGXSPP-UHFFFAOYSA-N

>  <placement_batch>  (266) 
CpKRS_FrAncestor_bulkdock_iter1_cluster_best5

>  <alias>  (266) 
OZYHDFCMHGXSPP-UHFFFAOYSA-N-P2

>  <name>  (266) 
OZYHDFCMHGXSPP-UHFFFAOYSA-N-P2

>  <smiles>  (266) 
Cn1c(C2=CCOCC2)cccc1=O

>  <subsites>  (266) 


>  <distance_score>  (266) 
0.718085

$$$$
DOTBNDKQUABQSB-UHFFFAOYSA-N-P38
     RDKit          3D

 15 15  0  0  0  0  0  0  0  0999 V2000
    4.9508   -8.5608   24.3703 C   0  0  0  0  0  0  0  0  0  0  0  0
    4.5445   -9.2915   23.1005 C   0  0  0  0  0  0  0  0  0  0  0  0
    5.0113  -10.7443   23.1205 C   0  0  2  0  0  0  0  0  0  0  0  0
    4.9298  -11.3660   21.7420 C   0  0  0  0  0  0  0  0  0  0  0  0
    4.2539  -11.5748   24.0246 N   0  0  0  0  0  0  0  0  0  0  0  0
    4.6101  -12.9214   24.6824 C   0  0  0  0  0  0  0  0  0  0  0  0
    5.6006  -13.5344   24.6590 O   0  0  0  0  0  0  0  0  0  0  0  0
    3.4447  -13.4181   25.4917 C   0  0  0  0  0  0  0  0  0  0  0  0
    3.6680  -14.4552   26.3196 C   0  0  0  0  0  0  0  0  0  0  0  0
    2.7535  -14.9727   27.2289 N   0  0  0  0  0  0  0  0  0  0  0  0
    3.1132  -16.1316   28.0455 C   0  0  0  0  0  0  0  0  0  0  0  0
    1.4797  -14.4374   27.2426 C   0  0  0  0  0  0  0  0  0  0  0  0
    1.0835  -13.4318   26.4557 C   0  0  0  0  0  0  0  0  0  0  0  0
    2.0803  -12.8319   25.5343 C   0  0  0  0  0  0  0  0  0  0  0  0
    1.7615  -11.8565   24.8551 O   0  0  0  0  0  0  0  0  0  0  0  0
  1  2  1  0
  2  3  1  0
  3  4  1  6
  3  5  1  0
  5  6  1  0
  6  7  2  0
  6  8  1  0
  8  9  2  0
  9 10  1  0
 10 11  1  0
 10 12  1  0
 12 13  2  0
 13 14  1  0
 14 15  2  0
 14  8  1  0
M  END
>  <inspiration_score>  (267) 
0.791

>  <HIPPO Pose ID>  (267) 
1450913

>  <ref_pdb>  (267) 
x0502c

>  <ref_mols>  (267) 
x0555a

>  <HIPPO Compound ID>  (267) 
104376

>  <energy_score>  (267) 
-264.467754

>  <tags>  (267) 
CpKRS_FrAncestor_bulkdock_iter1,CpKRS_FrAncestor_bulkdock_iter1_cluster_best5,fragmenstein_placed,CpKRS_FrAncestor_bulkdock_iter1_exported,BulkDock Fragalysis export

>  <inchikey>  (267) 
DOTBNDKQUABQSB-UHFFFAOYSA-N

>  <placement_batch>  (267) 
CpKRS_FrAncestor_bulkdock_iter1_cluster_best5

>  <alias>  (267) 
DOTBNDKQUABQSB-UHFFFAOYSA-N-P38

>  <name>  (267) 
DOTBNDKQUABQSB-UHFFFAOYSA-N-P38

>  <smiles>  (267) 
CCC(C)NC(=O)c1cn(C)ccc1=O

>  <subsites>  (267) 


>  <distance_score>  (267) 
0.398485

$$$$
RRGMUHLEBGCAEV-QBFSEMIESA-N-P62
     RDKit          3D

 20 21  0  0  0  0  0  0  0  0999 V2000
    4.8827  -16.1496   27.5843 C   0  0  0  0  0  0  0  0  0  0  0  0
    3.5059  -15.7593   27.7555 N   0  0  0  0  0  0  0  0  0  0  0  0
    2.8433  -16.1991   28.8562 N   0  0  0  0  0  0  0  0  0  0  0  0
    1.6740  -15.5607   28.7921 C   0  0  0  0  0  0  0  0  0  0  0  0
    1.5517  -14.7838   27.6369 C   0  0  0  0  0  0  0  0  0  0  0  0
    2.7583  -14.9131   26.9758 C   0  0  0  0  0  0  0  0  0  0  0  0
    3.2717  -14.2983   25.8114 C   0  0  0  0  0  0  0  0  0  0  0  0
    4.6091  -14.2163   25.6366 F   0  0  0  0  0  0  0  0  0  0  0  0
    2.4385  -13.6551   24.9882 C   0  0  0  0  0  0  0  0  0  0  0  0
    2.9378  -12.7366   23.9552 C   0  0  0  0  0  0  0  0  0  0  0  0
    2.6982  -12.8645   22.8281 O   0  0  0  0  0  0  0  0  0  0  0  0
    3.6856  -11.6215   24.6904 N   0  0  0  0  0  0  0  0  0  0  0  0
    4.2133  -10.3851   24.2093 C   0  0  0  0  0  0  0  0  0  0  0  0
    4.6294   -9.4811   25.3604 C   0  0  0  0  0  0  0  0  0  0  0  0
    4.6911   -8.0054   25.0324 C   0  0  0  0  0  0  0  0  0  0  0  0
    5.8641   -7.6603   24.1403 C   0  0  0  0  0  0  0  0  0  0  0  0
    5.5292   -7.5320   22.6672 C   0  0  0  0  0  0  0  0  0  0  0  0
    4.6605   -8.5425   21.9616 C   0  0  0  0  0  0  0  0  0  0  0  0
    5.2288   -9.9449   21.9071 C   0  0  0  0  0  0  0  0  0  0  0  0
    5.3575  -10.6637   23.2354 C   0  0  0  0  0  0  0  0  0  0  0  0
  1  2  1  0
  2  3  1  0
  3  4  2  0
  4  5  1  0
  5  6  2  0
  6  7  1  0
  7  8  1  0
  7  9  2  0
  9 10  1  0
 10 11  2  0
 10 12  1  0
 12 13  1  0
 13 14  1  0
 14 15  1  0
 15 16  1  0
 16 17  1  0
 17 18  1  0
 18 19  1  0
 19 20  1  0
  6  2  1  0
 20 13  1  0
M  END
>  <inspiration_score>  (268) 
0.647

>  <HIPPO Pose ID>  (268) 
1452493

>  <ref_pdb>  (268) 
x0501b

>  <ref_mols>  (268) 
x0759a

>  <HIPPO Compound ID>  (268) 
457061

>  <energy_score>  (268) 
-110.498846

>  <tags>  (268) 
CpKRS_FrAncestor_bulkdock_iter1,CpKRS_FrAncestor_bulkdock_iter1_cluster_best5,fragmenstein_placed,CpKRS_FrAncestor_bulkdock_iter1_exported,BulkDock Fragalysis export

>  <inchikey>  (268) 
RRGMUHLEBGCAEV-UHFFFAOYSA-N

>  <placement_batch>  (268) 
CpKRS_FrAncestor_bulkdock_iter1_cluster_best5

>  <alias>  (268) 
RRGMUHLEBGCAEV-QBFSEMIESA-N-P62

>  <name>  (268) 
RRGMUHLEBGCAEV-QBFSEMIESA-N-P62

>  <smiles>  (268) 
Cn1nccc1/C(F)=C/C(=O)NC1CCCCCCC1

>  <subsites>  (268) 


>  <distance_score>  (268) 
0.788292

$$$$
QJSJGZFHZLIWBB-UHFFFAOYSA-N-P26
     RDKit          3D

 20 22  0  0  0  0  0  0  0  0999 V2000
    5.2019   11.2320   40.5363 O   0  0  0  0  0  0  0  0  0  0  0  0
    4.8825   10.2399   39.9009 C   0  0  0  0  0  0  0  0  0  0  0  0
    4.8879   10.1602   38.4356 C   0  0  0  0  0  0  0  0  0  0  0  0
    3.9952   10.9066   37.7832 C   0  0  0  0  0  0  0  0  0  0  0  0
    3.7110   11.0783   36.3117 C   0  0  0  0  0  0  0  0  0  0  0  0
    3.0080   12.3905   36.7535 C   0  0  0  0  0  0  0  0  0  0  0  0
    2.9336   11.8970   38.2115 C   0  0  0  0  0  0  0  0  0  0  0  0
    4.3835    9.1033   40.4724 N   0  0  0  0  0  0  0  0  0  0  0  0
    2.9524    8.9908   40.6382 C   0  0  0  0  0  0  0  0  0  0  0  0
    2.5788    8.7635   42.0845 C   0  0  0  0  0  0  0  0  0  0  0  0
    2.5971    7.2865   42.4176 C   0  0  0  0  0  0  0  0  0  0  0  0
    3.9502    6.7099   42.4865 N   0  0  0  0  0  0  0  0  0  0  0  0
    3.9197    5.5117   43.2363 C   0  0  0  0  0  0  0  0  0  0  0  0
    4.2806    4.2598   42.7209 C   0  0  0  0  0  0  0  0  0  0  0  0
    4.3551    3.1353   43.5473 C   0  0  0  0  0  0  0  0  0  0  0  0
    4.0407    3.2392   44.8998 C   0  0  0  0  0  0  0  0  0  0  0  0
    3.6144    4.4515   45.4229 C   0  0  0  0  0  0  0  0  0  0  0  0
    3.5735    5.5772   44.6026 C   0  0  0  0  0  0  0  0  0  0  0  0
    4.6986    6.6935   41.2036 C   0  0  0  0  0  0  0  0  0  0  0  0
    5.3092    8.0621   40.8868 C   0  0  0  0  0  0  0  0  0  0  0  0
  1  2  2  0
  2  3  1  0
  3  4  2  3
  4  5  1  0
  5  6  1  0
  6  7  1  0
  2  8  1  0
  8  9  1  0
  9 10  1  0
 10 11  1  0
 11 12  1  0
 12 13  1  0
 13 14  2  0
 14 15  1  0
 15 16  2  0
 16 17  1  0
 17 18  2  0
 12 19  1  0
 19 20  1  0
  7  4  1  0
 20  8  1  0
 18 13  1  0
M  END
>  <inspiration_score>  (269) 
0.569

>  <HIPPO Pose ID>  (269) 
1453248

>  <ref_pdb>  (269) 
x0501b

>  <ref_mols>  (269) 
x0479b

>  <HIPPO Compound ID>  (269) 
457341

>  <energy_score>  (269) 
-46.170282

>  <tags>  (269) 
CpKRS_FrAncestor_bulkdock_iter1,CpKRS_FrAncestor_bulkdock_iter1_cluster_best5,fragmenstein_placed,CpKRS_FrAncestor_bulkdock_iter1_exported,BulkDock Fragalysis export

>  <inchikey>  (269) 
QJSJGZFHZLIWBB-UHFFFAOYSA-N

>  <placement_batch>  (269) 
CpKRS_FrAncestor_bulkdock_iter1_cluster_best5

>  <alias>  (269) 
QJSJGZFHZLIWBB-UHFFFAOYSA-N-P26

>  <name>  (269) 
QJSJGZFHZLIWBB-UHFFFAOYSA-N-P26

>  <smiles>  (269) 
O=C(C=C1CCC1)N1CCCN(c2ccccc2)CC1

>  <subsites>  (269) 


>  <distance_score>  (269) 
0.914271

$$$$
XBKWVQOPQATAKM-UHFFFAOYSA-N-P44
     RDKit          3D

 20 21  0  0  0  0  0  0  0  0999 V2000
   -7.3042  -13.5174   49.8997 C   0  0  0  0  0  0  0  0  0  0  0  0
   -8.0132  -12.7248   48.9040 N   0  0  0  0  0  0  0  0  0  0  0  0
   -7.4421  -11.5418   48.4775 C   0  0  0  0  0  0  0  0  0  0  0  0
   -8.0444  -10.7723   47.5682 C   0  0  0  0  0  0  0  0  0  0  0  0
   -9.3191  -11.1669   47.0317 C   0  0  0  0  0  0  0  0  0  0  0  0
   -9.9352  -12.3019   47.4170 C   0  0  0  0  0  0  0  0  0  0  0  0
  -11.2844  -12.5707   46.7883 C   0  0  0  0  0  0  0  0  0  0  0  0
  -11.8596  -11.7083   46.2519 O   0  0  0  0  0  0  0  0  0  0  0  0
  -11.6182  -14.0715   46.9077 N   0  0  0  0  0  0  0  0  0  0  0  0
  -12.6787  -14.8445   46.3135 C   0  0  0  0  0  0  0  0  0  0  0  0
  -12.7948  -14.6504   44.7841 C   0  0  0  0  0  0  0  0  0  0  0  0
  -11.4219  -14.7645   44.1042 C   0  0  0  0  0  0  0  0  0  0  0  0
  -11.4306  -14.8350   42.5800 C   0  0  0  0  0  0  0  0  0  0  0  0
  -11.1648  -16.2364   42.0428 C   0  0  0  0  0  0  0  0  0  0  0  0
  -12.2685  -17.2675   42.2481 C   0  0  0  0  0  0  0  0  0  0  0  0
  -12.5222  -17.6882   43.6925 C   0  0  0  0  0  0  0  0  0  0  0  0
  -13.7557  -17.0494   44.3228 C   0  0  0  0  0  0  0  0  0  0  0  0
  -13.9077  -15.5347   44.1939 C   0  0  0  0  0  0  0  0  0  0  0  0
   -9.2444  -13.1810   48.4204 C   0  0  0  0  0  0  0  0  0  0  0  0
   -9.7605  -14.2376   48.7864 O   0  0  0  0  0  0  0  0  0  0  0  0
  1  2  1  0
  2  3  1  0
  3  4  2  0
  4  5  1  0
  5  6  2  0
  6  7  1  0
  7  8  2  0
  7  9  1  0
  9 10  1  0
 10 11  1  0
 11 12  1  0
 12 13  1  0
 13 14  1  0
 14 15  1  0
 15 16  1  0
 16 17  1  0
 17 18  1  0
  6 19  1  0
 19 20  2  0
 19  2  1  0
 18 11  1  0
M  END
>  <inspiration_score>  (270) 
0.683

>  <HIPPO Pose ID>  (270) 
1453281

>  <ref_pdb>  (270) 
x0501b

>  <ref_mols>  (270) 
x0502b

>  <HIPPO Compound ID>  (270) 
457352

>  <energy_score>  (270) 
-289.120589

>  <tags>  (270) 
CpKRS_FrAncestor_bulkdock_iter1,CpKRS_FrAncestor_bulkdock_iter1_cluster_best5,fragmenstein_placed,CpKRS_FrAncestor_bulkdock_iter1_exported,BulkDock Fragalysis export

>  <inchikey>  (270) 
XBKWVQOPQATAKM-UHFFFAOYSA-N

>  <placement_batch>  (270) 
CpKRS_FrAncestor_bulkdock_iter1_cluster_best5

>  <alias>  (270) 
XBKWVQOPQATAKM-UHFFFAOYSA-N-P44

>  <name>  (270) 
XBKWVQOPQATAKM-UHFFFAOYSA-N-P44

>  <smiles>  (270) 
Cn1cccc(C(=O)NCC2CCCCCCC2)c1=O

>  <subsites>  (270) 


>  <distance_score>  (270) 
0.879345

$$$$
QMGAFKLZHPESBN-UHFFFAOYSA-N-P20
     RDKit          3D

 20 21  0  0  0  0  0  0  0  0999 V2000
    1.1340    5.4594   45.1958 C   0  0  0  0  0  0  0  0  0  0  0  0
    2.5341    5.9285   45.4490 C   0  0  0  0  0  0  0  0  0  0  0  0
    2.3609    7.2619   46.1679 C   0  0  0  0  0  0  0  0  0  0  0  0
    3.2216    6.0982   44.1798 N   0  0  0  0  0  0  0  0  0  0  0  0
    3.5688    5.0669   43.0786 C   0  0  0  0  0  0  0  0  0  0  0  0
    3.4247    3.9074   43.0546 O   0  0  0  0  0  0  0  0  0  0  0  0
    4.2909    5.7325   41.9287 C   0  0  0  0  0  0  0  0  0  0  0  0
    5.0520    4.9324   41.1547 C   0  0  0  0  0  0  0  0  0  0  0  0
    5.8253    5.4442   40.0549 C   0  0  0  0  0  0  0  0  0  0  0  0
    5.7969    6.7492   39.7728 C   0  0  0  0  0  0  0  0  0  0  0  0
    5.0317    7.6129   40.5295 N   0  0  0  0  0  0  0  0  0  0  0  0
    5.0219    9.0230   40.2643 C   0  0  0  0  0  0  0  0  0  0  0  0
    5.5036    9.7441   41.3013 F   0  0  0  0  0  0  0  0  0  0  0  0
    5.7754    9.3405   39.1790 F   0  0  0  0  0  0  0  0  0  0  0  0
    3.7687    9.4639   39.9907 F   0  0  0  0  0  0  0  0  0  0  0  0
    4.2859    7.1943   41.6155 C   0  0  0  0  0  0  0  0  0  0  0  0
    3.6985    7.9720   42.3608 O   0  0  0  0  0  0  0  0  0  0  0  0
    3.3147    4.9891   46.3149 C   0  0  0  0  0  0  0  0  0  0  0  0
    3.3664    3.4985   46.1190 C   0  0  0  0  0  0  0  0  0  0  0  0
    2.6320    4.0564   47.2990 C   0  0  0  0  0  0  0  0  0  0  0  0
  1  2  1  0
  2  3  1  0
  2  4  1  0
  4  5  1  0
  5  6  2  0
  5  7  1  0
  7  8  2  0
  8  9  1  0
  9 10  2  0
 10 11  1  0
 11 12  1  0
 12 13  1  0
 12 14  1  0
 12 15  1  0
 11 16  1  0
 16 17  2  0
  2 18  1  0
 18 19  1  0
 19 20  1  0
 16  7  1  0
 20 18  1  0
M  END
>  <inspiration_score>  (271) 
0.845

>  <HIPPO Pose ID>  (271) 
1455026

>  <ref_pdb>  (271) 
x0501b

>  <ref_mols>  (271) 
x0456a

>  <HIPPO Compound ID>  (271) 
457939

>  <energy_score>  (271) 
-273.584161

>  <tags>  (271) 
CpKRS_FrAncestor_bulkdock_iter1,CpKRS_FrAncestor_bulkdock_iter1_cluster_best5,fragmenstein_placed,CpKRS_FrAncestor_bulkdock_iter1_exported,BulkDock Fragalysis export

>  <inchikey>  (271) 
QMGAFKLZHPESBN-UHFFFAOYSA-N

>  <placement_batch>  (271) 
CpKRS_FrAncestor_bulkdock_iter1_cluster_best5

>  <alias>  (271) 
QMGAFKLZHPESBN-UHFFFAOYSA-N-P20

>  <name>  (271) 
QMGAFKLZHPESBN-UHFFFAOYSA-N-P20

>  <smiles>  (271) 
CC(C)(NC(=O)c1cccn(C(F)(F)F)c1=O)C1CC1

>  <subsites>  (271) 


>  <distance_score>  (271) 
0.448522

$$$$
SXIVPULEDIYWDO-UHFFFAOYSA-N-P63
     RDKit          3D

 20 22  0  0  0  0  0  0  0  0999 V2000
    1.6613  -13.0851   25.7513 C   0  0  0  0  0  0  0  0  0  0  0  0
    2.5963  -14.1960   26.0233 C   0  0  0  0  0  0  0  0  0  0  0  0
    2.0789  -15.2528   26.7731 N   0  0  0  0  0  0  0  0  0  0  0  0
    3.0314  -16.1161   27.0271 C   0  0  0  0  0  0  0  0  0  0  0  0
    4.5745  -15.7330   26.4094 S   0  0  0  0  0  0  0  0  0  0  0  0
    3.9343  -14.3178   25.6582 C   0  0  0  0  0  0  0  0  0  0  0  0
    4.8496  -13.4795   24.8618 C   0  0  0  0  0  0  0  0  0  0  0  0
    5.9578  -13.3650   25.2032 O   0  0  0  0  0  0  0  0  0  0  0  0
    4.1058  -12.8615   23.6619 N   0  0  0  0  0  0  0  0  0  0  0  0
    4.5952  -12.0445   22.5709 C   0  0  0  0  0  0  0  0  0  0  0  0
    4.7239  -10.5185   22.8299 C   0  0  0  0  0  0  0  0  0  0  0  0
    4.8893   -9.7993   21.4662 C   0  0  0  0  0  0  0  0  0  0  0  0
    5.9754  -10.1361   23.6344 C   0  0  0  0  0  0  0  0  0  0  0  0
    5.5701   -8.9246   24.3843 C   0  0  0  0  0  0  0  0  0  0  0  0
    6.3949   -8.0045   25.0082 C   0  0  0  0  0  0  0  0  0  0  0  0
    5.8003   -7.0592   25.8292 C   0  0  0  0  0  0  0  0  0  0  0  0
    4.4249   -7.0790   26.0280 C   0  0  0  0  0  0  0  0  0  0  0  0
    3.6067   -7.9335   25.2815 C   0  0  0  0  0  0  0  0  0  0  0  0
    4.1895   -8.8611   24.4581 C   0  0  0  0  0  0  0  0  0  0  0  0
    3.5381   -9.9367   23.6453 C   0  0  0  0  0  0  0  0  0  0  0  0
  1  2  1  0
  2  3  1  0
  3  4  2  0
  4  5  1  0
  5  6  1  0
  6  7  1  0
  7  8  2  0
  7  9  1  0
  9 10  1  0
 10 11  1  0
 11 12  1  0
 11 13  1  0
 13 14  1  0
 14 15  2  0
 15 16  1  0
 16 17  2  0
 17 18  1  0
 18 19  2  0
 19 20  1  0
  6  2  2  0
 20 11  1  0
 19 14  1  0
M  END
>  <inspiration_score>  (272) 
0.503

>  <HIPPO Pose ID>  (272) 
1455129

>  <ref_pdb>  (272) 
x0501b

>  <ref_mols>  (272) 
x0787a

>  <HIPPO Compound ID>  (272) 
457980

>  <energy_score>  (272) 
-77.172596

>  <tags>  (272) 
CpKRS_FrAncestor_bulkdock_iter1,CpKRS_FrAncestor_bulkdock_iter1_cluster_best5,fragmenstein_placed,CpKRS_FrAncestor_bulkdock_iter1_exported,BulkDock Fragalysis export

>  <inchikey>  (272) 
SXIVPULEDIYWDO-UHFFFAOYSA-N

>  <placement_batch>  (272) 
CpKRS_FrAncestor_bulkdock_iter1_cluster_best5

>  <alias>  (272) 
SXIVPULEDIYWDO-UHFFFAOYSA-N-P63

>  <name>  (272) 
SXIVPULEDIYWDO-UHFFFAOYSA-N-P63

>  <smiles>  (272) 
Cc1ncsc1C(=O)NCC1(C)Cc2ccccc2C1

>  <subsites>  (272) 


>  <distance_score>  (272) 
0.957349

$$$$
OKTMLRMVSFNHNO-UHFFFAOYSA-N-P13
     RDKit          3D

 20 22  0  0  0  0  0  0  0  0999 V2000
    4.4882  -15.5549   26.7610 C   0  0  0  0  0  0  0  0  0  0  0  0
    3.1630  -14.8761   26.5493 C   0  0  0  0  0  0  0  0  0  0  0  0
    2.1199  -15.1199   27.4476 C   0  0  0  0  0  0  0  0  0  0  0  0
    0.8756  -14.5090   27.2805 C   0  0  0  0  0  0  0  0  0  0  0  0
    0.6339  -13.6694   26.1980 C   0  0  0  0  0  0  0  0  0  0  0  0
    1.6583  -13.4205   25.2868 C   0  0  0  0  0  0  0  0  0  0  0  0
    2.9180  -14.0129   25.4667 C   0  0  0  0  0  0  0  0  0  0  0  0
    4.0210  -13.6765   24.5278 C   0  0  0  0  0  0  0  0  0  0  0  0
    4.6249  -14.5325   24.0220 O   0  0  0  0  0  0  0  0  0  0  0  0
    4.2207  -12.1543   24.4802 N   0  0  0  0  0  0  0  0  0  0  0  0
    5.2624  -11.3669   23.8770 C   0  0  1  0  0  0  0  0  0  0  0  0
    5.1937  -11.3725   22.3627 C   0  0  0  0  0  0  0  0  0  0  0  0
    4.1144  -10.4217   21.8819 C   0  0  0  0  0  0  0  0  0  0  0  0
    3.9892   -9.0763   22.6037 C   0  0  0  0  0  0  0  0  0  0  0  0
    4.0520   -9.2413   24.0491 N   0  0  0  0  0  0  0  0  0  0  0  0
    4.0002   -8.0369   24.8820 C   0  0  0  0  0  0  0  0  0  0  0  0
    5.0672   -6.9803   24.5828 C   0  0  0  0  0  0  0  0  0  0  0  0
    6.7670   -7.4937   24.4801 S   0  0  0  0  0  0  0  0  0  0  0  0
    6.5776   -9.2162   23.9989 C   0  0  0  0  0  0  0  0  0  0  0  0
    5.2890   -9.9301   24.4037 C   0  0  2  0  0  0  0  0  0  0  0  0
  1  2  1  0
  2  3  2  0
  3  4  1  0
  4  5  2  0
  5  6  1  0
  6  7  2  0
  7  8  1  0
  8  9  2  0
  8 10  1  0
 11 10  1  1
 11 12  1  0
 12 13  1  0
 13 14  1  0
 14 15  1  0
 15 16  1  0
 16 17  1  0
 17 18  1  0
 18 19  1  0
 20 19  1  6
  7  2  1  0
 20 11  1  0
 20 15  1  0
M  END
>  <inspiration_score>  (273) 
0.574

>  <HIPPO Pose ID>  (273) 
1458419

>  <ref_pdb>  (273) 
x0501b

>  <ref_mols>  (273) 
x0421c

>  <HIPPO Compound ID>  (273) 
459057

>  <energy_score>  (273) 
-801.499768

>  <tags>  (273) 
CpKRS_FrAncestor_bulkdock_iter1,CpKRS_FrAncestor_bulkdock_iter1_cluster_best5,fragmenstein_placed,CpKRS_FrAncestor_bulkdock_iter1_exported,BulkDock Fragalysis export

>  <inchikey>  (273) 
OKTMLRMVSFNHNO-UHFFFAOYSA-N

>  <placement_batch>  (273) 
CpKRS_FrAncestor_bulkdock_iter1_cluster_best5

>  <alias>  (273) 
OKTMLRMVSFNHNO-UHFFFAOYSA-N-P13

>  <name>  (273) 
OKTMLRMVSFNHNO-UHFFFAOYSA-N-P13

>  <smiles>  (273) 
Cc1ccccc1C(=O)NC1CCCN2CCSCC12

>  <subsites>  (273) 


>  <distance_score>  (273) 
0.894207

$$$$
LGDCXVXBPPFPBC-UHFFFAOYSA-N-P9
     RDKit          3D

 20 22  0  0  0  0  0  0  0  0999 V2000
    4.5437  -14.5154   24.5196 O   0  0  0  0  0  0  0  0  0  0  0  0
    4.1164  -13.6305   25.1485 C   0  0  0  0  0  0  0  0  0  0  0  0
    4.0679  -12.1041   24.8395 N   0  0  0  0  0  0  0  0  0  0  0  0
    4.4347  -11.4062   23.7020 C   0  0  0  0  0  0  0  0  0  0  0  0
    4.6172  -12.1599   22.5511 C   0  0  0  0  0  0  0  0  0  0  0  0
    4.9652  -11.5381   21.3743 C   0  0  0  0  0  0  0  0  0  0  0  0
    5.1429  -10.1688   21.3193 C   0  0  0  0  0  0  0  0  0  0  0  0
    5.0020   -9.4029   22.4684 C   0  0  0  0  0  0  0  0  0  0  0  0
    4.6401  -10.0164   23.6758 C   0  0  0  0  0  0  0  0  0  0  0  0
    4.5425   -9.1298   24.8813 C   0  0  0  0  0  0  0  0  0  0  0  0
    5.2987   -7.8167   24.7384 C   0  0  0  0  0  0  0  0  0  0  0  0
    4.9381   -7.1935   23.5200 O   0  0  0  0  0  0  0  0  0  0  0  0
    5.3879   -7.9548   22.4110 C   0  0  0  0  0  0  0  0  0  0  0  0
    3.4480  -13.8530   26.4956 C   0  0  2  0  0  0  0  0  0  0  0  0
    3.8307  -15.2095   27.1054 C   0  0  0  0  0  0  0  0  0  0  0  0
    2.8256  -16.3105   26.8454 C   0  0  0  0  0  0  0  0  0  0  0  0
    1.6321  -16.2425   27.7803 C   0  0  0  0  0  0  0  0  0  0  0  0
    0.6896  -15.2044   27.5339 O   0  0  0  0  0  0  0  0  0  0  0  0
    1.2114  -13.8975   27.6656 C   0  0  0  0  0  0  0  0  0  0  0  0
    1.9610  -13.5177   26.4096 C   0  0  0  0  0  0  0  0  0  0  0  0
  1  2  2  0
  2  3  1  0
  3  4  1  0
  4  5  2  0
  5  6  1  0
  6  7  2  0
  7  8  1  0
  8  9  2  0
  9 10  1  0
 10 11  1  0
 11 12  1  0
 12 13  1  0
 14  2  1  6
 14 15  1  0
 15 16  1  0
 16 17  1  0
 17 18  1  0
 18 19  1  0
 19 20  1  0
  9  4  1  0
 20 14  1  0
 13  8  1  0
M  END
>  <inspiration_score>  (274) 
0.661

>  <HIPPO Pose ID>  (274) 
1461457

>  <ref_pdb>  (274) 
x0501b

>  <ref_mols>  (274) 
x0419a

>  <HIPPO Compound ID>  (274) 
459949

>  <energy_score>  (274) 
-159.171404

>  <tags>  (274) 
CpKRS_FrAncestor_bulkdock_iter1,CpKRS_FrAncestor_bulkdock_iter1_cluster_best5,fragmenstein_placed,CpKRS_FrAncestor_bulkdock_iter1_exported,BulkDock Fragalysis export

>  <inchikey>  (274) 
LGDCXVXBPPFPBC-UHFFFAOYSA-N

>  <placement_batch>  (274) 
CpKRS_FrAncestor_bulkdock_iter1_cluster_best5

>  <alias>  (274) 
LGDCXVXBPPFPBC-UHFFFAOYSA-N-P9

>  <name>  (274) 
LGDCXVXBPPFPBC-UHFFFAOYSA-N-P9

>  <smiles>  (274) 
O=C(Nc1cccc2c1CCOC2)C1CCCOCC1

>  <subsites>  (274) 


>  <distance_score>  (274) 
0.760313

$$$$
KXOLRDBYAJAARZ-UHFFFAOYSA-N-P30
     RDKit          3D

 20 21  0  0  0  0  0  0  0  0999 V2000
    4.1358  -16.1341   28.6486 C   0  0  0  0  0  0  0  0  0  0  0  0
    3.4260  -15.1736   27.8247 N   0  0  0  0  0  0  0  0  0  0  0  0
    2.1076  -14.8545   28.0739 C   0  0  0  0  0  0  0  0  0  0  0  0
    1.4268  -13.9381   27.3834 C   0  0  0  0  0  0  0  0  0  0  0  0
    2.1428  -13.1646   26.3495 C   0  0  0  0  0  0  0  0  0  0  0  0
    1.5739  -12.2122   25.8234 O   0  0  0  0  0  0  0  0  0  0  0  0
    3.5379  -13.5448   26.0426 C   0  0  0  0  0  0  0  0  0  0  0  0
    4.4163  -12.8774   25.0491 C   0  0  0  0  0  0  0  0  0  0  0  0
    5.3073  -13.4484   24.5558 O   0  0  0  0  0  0  0  0  0  0  0  0
    3.9843  -11.3944   24.9281 N   0  0  0  0  0  0  0  0  0  0  0  0
    4.4819  -10.3755   24.1354 C   0  0  0  0  0  0  0  0  0  0  0  0
    4.5511   -9.1038   24.7127 C   0  0  0  0  0  0  0  0  0  0  0  0
    5.1208   -8.0464   24.0133 C   0  0  0  0  0  0  0  0  0  0  0  0
    5.5364   -8.2348   22.7032 C   0  0  0  0  0  0  0  0  0  0  0  0
    5.4291   -9.4893   22.1115 C   0  0  0  0  0  0  0  0  0  0  0  0
    4.8989  -10.5808   22.8177 C   0  0  0  0  0  0  0  0  0  0  0  0
    4.6441  -11.8705   22.0787 C   0  0  0  0  0  0  0  0  0  0  0  0
    4.8576  -11.7108   20.7410 F   0  0  0  0  0  0  0  0  0  0  0  0
    3.3364  -12.2428   22.1704 F   0  0  0  0  0  0  0  0  0  0  0  0
    4.0724  -14.5320   26.7784 C   0  0  0  0  0  0  0  0  0  0  0  0
  1  2  1  0
  2  3  1  0
  3  4  2  0
  4  5  1  0
  5  6  2  0
  5  7  1  0
  7  8  1  0
  8  9  2  0
  8 10  1  0
 10 11  1  0
 11 12  2  0
 12 13  1  0
 13 14  2  0
 14 15  1  0
 15 16  2  0
 16 17  1  0
 17 18  1  0
 17 19  1  0
  7 20  2  0
 20  2  1  0
 16 11  1  0
M  END
>  <inspiration_score>  (275) 
0.772

>  <HIPPO Pose ID>  (275) 
1468561

>  <ref_pdb>  (275) 
x0421c

>  <ref_mols>  (275) 
x0485a

>  <HIPPO Compound ID>  (275) 
467753

>  <energy_score>  (275) 
-261.013629

>  <tags>  (275) 
CpKRS_FrAncestor_bulkdock_iter1,CpKRS_FrAncestor_bulkdock_iter1_cluster_best5,fragmenstein_placed,CpKRS_FrAncestor_bulkdock_iter1_exported,BulkDock Fragalysis export

>  <inchikey>  (275) 
KXOLRDBYAJAARZ-UHFFFAOYSA-N

>  <placement_batch>  (275) 
CpKRS_FrAncestor_bulkdock_iter1_cluster_best5

>  <alias>  (275) 
KXOLRDBYAJAARZ-UHFFFAOYSA-N-P30

>  <name>  (275) 
KXOLRDBYAJAARZ-UHFFFAOYSA-N-P30

>  <smiles>  (275) 
Cn1ccc(=O)c(C(=O)Nc2ccccc2C(F)F)c1

>  <subsites>  (275) 


>  <distance_score>  (275) 
0.355612

$$$$
SPVJMTITYAHEEJ-UHFFFAOYSA-N-P46
     RDKit          3D

 20 21  0  0  0  0  0  0  0  0999 V2000
    5.7428  -12.8856   25.1163 O   0  0  0  0  0  0  0  0  0  0  0  0
    4.6546  -12.9915   24.7199 C   0  0  0  0  0  0  0  0  0  0  0  0
    4.0204  -12.5047   23.4035 N   0  0  0  0  0  0  0  0  0  0  0  0
    4.5676  -11.7056   22.3457 C   0  0  0  0  0  0  0  0  0  0  0  0
    4.3752  -10.2329   22.6905 C   0  0  2  0  0  0  0  0  0  0  0  0
    4.8120   -9.2786   21.6292 C   0  0  0  0  0  0  0  0  0  0  0  0
    5.4312   -8.2204   22.1578 C   0  0  0  0  0  0  0  0  0  0  0  0
    5.5660   -8.3284   23.6399 C   0  0  0  0  0  0  0  0  0  0  0  0
    5.1951   -9.7799   23.9051 C   0  0  0  0  0  0  0  0  0  0  0  0
    3.5822  -13.5953   25.5747 C   0  0  0  0  0  0  0  0  0  0  0  0
    2.4317  -12.9076   25.7459 C   0  0  0  0  0  0  0  0  0  0  0  0
    1.4608  -13.2794   26.7385 C   0  0  0  0  0  0  0  0  0  0  0  0
    1.7380  -14.2851   27.5704 C   0  0  0  0  0  0  0  0  0  0  0  0
    2.9045  -15.0080   27.4397 N   0  0  0  0  0  0  0  0  0  0  0  0
    3.2036  -16.1121   28.2836 C   0  0  0  0  0  0  0  0  0  0  0  0
    3.2654  -17.2707   27.6027 F   0  0  0  0  0  0  0  0  0  0  0  0
    4.3489  -15.9611   28.9806 F   0  0  0  0  0  0  0  0  0  0  0  0
    2.2210  -16.2730   29.2187 F   0  0  0  0  0  0  0  0  0  0  0  0
    3.8711  -14.7510   26.4810 C   0  0  0  0  0  0  0  0  0  0  0  0
    4.9060  -15.4033   26.3914 O   0  0  0  0  0  0  0  0  0  0  0  0
  1  2  2  0
  2  3  1  0
  3  4  1  0
  5  4  1  6
  5  6  1  0
  6  7  2  0
  7  8  1  0
  8  9  1  0
  2 10  1  0
 10 11  2  0
 11 12  1  0
 12 13  2  0
 13 14  1  0
 14 15  1  0
 15 16  1  0
 15 17  1  0
 15 18  1  0
 14 19  1  0
 19 20  2  0
  9  5  1  0
 19 10  1  0
M  END
>  <inspiration_score>  (276) 
0.717

>  <HIPPO Pose ID>  (276) 
1471167

>  <ref_pdb>  (276) 
x0421c

>  <ref_mols>  (276) 
x0502c

>  <HIPPO Compound ID>  (276) 
468415

>  <energy_score>  (276) 
-246.480361

>  <tags>  (276) 
CpKRS_FrAncestor_bulkdock_iter1,CpKRS_FrAncestor_bulkdock_iter1_cluster_best5,fragmenstein_placed,CpKRS_FrAncestor_bulkdock_iter1_exported,BulkDock Fragalysis export

>  <inchikey>  (276) 
SPVJMTITYAHEEJ-UHFFFAOYSA-N

>  <placement_batch>  (276) 
CpKRS_FrAncestor_bulkdock_iter1_cluster_best5

>  <alias>  (276) 
SPVJMTITYAHEEJ-UHFFFAOYSA-N-P46

>  <name>  (276) 
SPVJMTITYAHEEJ-UHFFFAOYSA-N-P46

>  <smiles>  (276) 
O=C(NCC1C=CCC1)c1cccn(C(F)(F)F)c1=O

>  <subsites>  (276) 


>  <distance_score>  (276) 
0.640237

$$$$
IKQVHZGZLULKIQ-UHFFFAOYSA-N-P11
     RDKit          3D

 20 21  0  0  0  0  0  0  0  0999 V2000
    1.6509   -8.8714   24.6525 C   0  0  0  0  0  0  0  0  0  0  0  0
    2.2288   -9.6050   23.4501 C   0  0  0  0  0  0  0  0  0  0  0  0
    3.5326  -10.4221   23.7011 C   0  0  0  0  0  0  0  0  0  0  0  0
    3.1467  -11.5114   24.5761 N   0  0  0  0  0  0  0  0  0  0  0  0
    3.9338  -12.7610   25.0305 C   0  0  0  0  0  0  0  0  0  0  0  0
    5.0420  -13.0697   24.8334 O   0  0  0  0  0  0  0  0  0  0  0  0
    2.9803  -13.6466   25.7996 C   0  0  0  0  0  0  0  0  0  0  0  0
    3.4884  -14.7035   26.4581 C   0  0  0  0  0  0  0  0  0  0  0  0
    2.6349  -15.6541   27.1243 C   0  0  0  0  0  0  0  0  0  0  0  0
    1.3053  -15.5342   27.0489 C   0  0  0  0  0  0  0  0  0  0  0  0
    0.7249  -14.4674   26.4010 N   0  0  0  0  0  0  0  0  0  0  0  0
   -0.7037  -14.3728   26.2135 C   0  0  0  0  0  0  0  0  0  0  0  0
    1.4925  -13.4580   25.8295 C   0  0  0  0  0  0  0  0  0  0  0  0
    0.9530  -12.4462   25.3734 O   0  0  0  0  0  0  0  0  0  0  0  0
    4.6572   -9.6073   24.3790 C   0  0  0  0  0  0  0  0  0  0  0  0
    5.2541   -8.4048   23.6442 C   0  0  0  0  0  0  0  0  0  0  0  0
    5.1592   -8.3772   22.1315 C   0  0  0  0  0  0  0  0  0  0  0  0
    5.7487   -9.5831   21.4280 C   0  0  0  0  0  0  0  0  0  0  0  0
    5.4142  -10.9541   21.9905 C   0  0  0  0  0  0  0  0  0  0  0  0
    3.9567  -11.0819   22.3639 C   0  0  0  0  0  0  0  0  0  0  0  0
  1  2  1  0
  2  3  1  0
  3  4  1  0
  4  5  1  0
  5  6  2  0
  5  7  1  0
  7  8  2  0
  8  9  1  0
  9 10  2  0
 10 11  1  0
 11 12  1  0
 11 13  1  0
 13 14  2  0
  3 15  1  0
 15 16  1  0
 16 17  1  0
 17 18  1  0
 18 19  1  0
 19 20  1  0
 20  3  1  0
 13  7  1  0
M  END
>  <inspiration_score>  (277) 
0.559

>  <HIPPO Pose ID>  (277) 
1475912

>  <ref_pdb>  (277) 
x0421c

>  <ref_mols>  (277) 
x0421a

>  <HIPPO Compound ID>  (277) 
469714

>  <energy_score>  (277) 
-278.726564

>  <tags>  (277) 
CpKRS_FrAncestor_bulkdock_iter1,CpKRS_FrAncestor_bulkdock_iter1_cluster_best5,fragmenstein_placed,CpKRS_FrAncestor_bulkdock_iter1_exported,BulkDock Fragalysis export

>  <inchikey>  (277) 
IKQVHZGZLULKIQ-UHFFFAOYSA-N

>  <placement_batch>  (277) 
CpKRS_FrAncestor_bulkdock_iter1_cluster_best5

>  <alias>  (277) 
IKQVHZGZLULKIQ-UHFFFAOYSA-N-P11

>  <name>  (277) 
IKQVHZGZLULKIQ-UHFFFAOYSA-N-P11

>  <smiles>  (277) 
CCC1(NC(=O)c2cccn(C)c2=O)CCCCCC1

>  <subsites>  (277) 


>  <distance_score>  (277) 
0.884361

$$$$
C473104-P12
     RDKit          3D

 20 23  0  0  0  0  0  0  0  0999 V2000
   -0.2117  -14.0056   27.2525 C   0  0  0  0  0  0  0  0  0  0  0  0
    1.0462  -14.1309   26.4486 C   0  0  0  0  0  0  0  0  0  0  0  0
    2.1810  -14.5463   27.0509 C   0  0  0  0  0  0  0  0  0  0  0  0
    3.4597  -14.5822   26.2855 C   0  0  0  0  0  0  0  0  0  0  0  0
    4.4654  -15.0829   26.7753 O   0  0  0  0  0  0  0  0  0  0  0  0
    3.4125  -13.9830   24.9376 C   0  0  0  0  0  0  0  0  0  0  0  0
    4.5634  -13.5136   24.1458 C   0  0  0  0  0  0  0  0  0  0  0  0
    5.3536  -14.2102   23.6483 O   0  0  0  0  0  0  0  0  0  0  0  0
    4.3897  -11.9719   24.0677 N   0  0  0  0  0  0  0  0  0  0  0  0
    5.0936  -10.9936   23.2886 C   0  0  2  0  0  0  0  0  0  0  0  0
    5.4368   -9.7196   24.0818 C   0  0  0  0  0  0  0  0  0  0  0  0
    5.1931   -8.5707   23.1542 C   0  0  1  0  0  0  0  0  0  0  0  0
    5.7752   -8.5104   21.7702 C   0  0  0  0  0  0  0  0  0  0  0  0
    4.4065   -9.0655   21.9907 C   0  0  1  0  0  0  0  0  0  0  0  0
    4.1986  -10.5394   22.1213 C   0  0  0  0  0  0  0  0  0  0  0  0
    2.2110  -13.7129   24.4014 C   0  0  0  0  0  0  0  0  0  0  0  0
    1.0288  -13.7674   25.1020 N   0  0  0  0  0  0  0  0  0  0  0  0
   -0.2360  -13.6296   24.3543 C   0  0  0  0  0  0  0  0  0  0  0  0
   -0.4557  -12.5513   23.3182 C   0  0  0  0  0  0  0  0  0  0  0  0
   -1.2169  -12.5125   24.6042 C   0  0  0  0  0  0  0  0  0  0  0  0
  1  2  1  0
  2  3  2  0
  3  4  1  0
  4  5  2  0
  4  6  1  0
  6  7  1  0
  7  8  2  0
  7  9  1  0
 10  9  1  1
 10 11  1  0
 12 11  1  1
 12 13  1  0
 14 13  1  6
 14 15  1  0
  6 16  2  0
 16 17  1  0
 17 18  1  0
 18 19  1  0
 19 20  1  0
 17  2  1  0
 20 18  1  0
 15 10  1  0
 14 12  1  0
M  END
>  <inspiration_score>  (278) 
0.591

>  <HIPPO Pose ID>  (278) 
1489949

>  <ref_pdb>  (278) 
x0421a

>  <ref_mols>  (278) 
x0421b

>  <HIPPO Compound ID>  (278) 
473104

>  <energy_score>  (278) 
-275.120324

>  <tags>  (278) 
CpKRS_FrAncestor_bulkdock_iter1,CpKRS_FrAncestor_bulkdock_iter1_cluster_best5,fragmenstein_placed,CpKRS_FrAncestor_bulkdock_iter1_exported,BulkDock Fragalysis export

>  <inchikey>  (278) 
YZRPOSYHLGKZTB-UHFFFAOYSA-N

>  <placement_batch>  (278) 
CpKRS_FrAncestor_bulkdock_iter1_cluster_best5

>  <alias>  (278) 
C473104-P12

>  <name>  (278) 
C473104-P12

>  <smiles>  (278) 
Cc1cc(=O)c(C(=O)N[C@H]2C[C@@H]3C[C@@H]3C2)cn1C1CC1

>  <subsites>  (278) 


>  <distance_score>  (278) 
0.754554

$$$$
ZBAOGOPGMXRPGG-LLVKDONJSA-N-P47
     RDKit          3D

 20 22  0  0  0  0  0  0  0  0999 V2000
    4.6857    9.5990   40.0389 C   0  0  0  0  0  0  0  0  0  0  0  0
    3.4976    9.1409   40.7181 N   0  0  0  0  0  0  0  0  0  0  0  0
    2.2204    9.0116   40.0652 C   0  0  0  0  0  0  0  0  0  0  0  0
    1.5167    7.8959   40.8230 C   0  0  0  0  0  0  0  0  0  0  0  0
    2.1273    7.9544   42.2109 C   0  0  1  0  0  0  0  0  0  0  0  0
    2.2717    6.7150   42.9173 N   0  0  0  0  0  0  0  0  0  0  0  0
    3.0531    5.4439   42.5531 C   0  0  0  0  0  0  0  0  0  0  0  0
    3.6416    5.1708   41.5861 O   0  0  0  0  0  0  0  0  0  0  0  0
    3.1259    4.4647   43.6885 C   0  0  0  0  0  0  0  0  0  0  0  0
    3.9604    3.3423   43.5299 C   0  0  0  0  0  0  0  0  0  0  0  0
    4.2261    2.4826   44.5976 C   0  0  0  0  0  0  0  0  0  0  0  0
    3.6703    2.7399   45.8468 C   0  0  0  0  0  0  0  0  0  0  0  0
    3.9336    1.9145   46.8630 F   0  0  0  0  0  0  0  0  0  0  0  0
    2.8278    3.8137   46.0111 C   0  0  0  0  0  0  0  0  0  0  0  0
    2.5478    4.6489   44.9381 C   0  0  0  0  0  0  0  0  0  0  0  0
    1.6357    5.6234   45.2604 O   0  0  0  0  0  0  0  0  0  0  0  0
    1.6193    5.6126   46.7018 C   0  0  0  0  0  0  0  0  0  0  0  0
    2.0356    4.2261   47.1849 C   0  0  0  0  0  0  0  0  0  0  0  0
    3.5353    8.4554   41.9214 C   0  0  0  0  0  0  0  0  0  0  0  0
    4.5160    8.2874   42.6284 O   0  0  0  0  0  0  0  0  0  0  0  0
  1  2  1  0
  2  3  1  0
  3  4  1  0
  4  5  1  0
  5  6  1  6
  6  7  1  0
  7  8  2  0
  7  9  1  0
  9 10  2  0
 10 11  1  0
 11 12  2  0
 12 13  1  0
 12 14  1  0
 14 15  2  0
 15 16  1  0
 16 17  1  0
 17 18  1  0
  5 19  1  0
 19 20  2  0
 19  2  1  0
 15  9  1  0
 18 14  1  0
M  END
>  <inspiration_score>  (279) 
0.613

>  <HIPPO Pose ID>  (279) 
1494574

>  <ref_pdb>  (279) 
x0555a

>  <ref_mols>  (279) 
x0504c

>  <HIPPO Compound ID>  (279) 
461488

>  <energy_score>  (279) 
-254.950544

>  <tags>  (279) 
CpKRS_FrAncestor_bulkdock_iter1,CpKRS_FrAncestor_bulkdock_iter1_cluster_best5,fragmenstein_placed,CpKRS_FrAncestor_bulkdock_iter1_exported,BulkDock Fragalysis export

>  <inchikey>  (279) 
ZBAOGOPGMXRPGG-UHFFFAOYSA-N

>  <placement_batch>  (279) 
CpKRS_FrAncestor_bulkdock_iter1_cluster_best5

>  <alias>  (279) 
ZBAOGOPGMXRPGG-LLVKDONJSA-N-P47

>  <name>  (279) 
ZBAOGOPGMXRPGG-LLVKDONJSA-N-P47

>  <smiles>  (279) 
CN1CC[C@@H](NC(=O)c2ccc(F)c3c2OCC3)C1=O

>  <subsites>  (279) 


>  <distance_score>  (279) 
0.898818

$$$$
CXHDYYKUWVNUOB-UHFFFAOYSA-N-P63
     RDKit          3D

 20 21  0  0  0  0  0  0  0  0999 V2000
    2.8378  -17.3291   28.6420 C   0  0  0  0  0  0  0  0  0  0  0  0
    2.7054  -16.4351   27.8581 C   0  0  0  0  0  0  0  0  0  0  0  0
    2.8131  -15.3922   26.9120 C   0  0  0  0  0  0  0  0  0  0  0  0
    1.8197  -14.5363   26.5067 C   0  0  0  0  0  0  0  0  0  0  0  0
    2.3120  -13.5842   25.5658 C   0  0  0  0  0  0  0  0  0  0  0  0
    3.6621  -13.7548   25.3012 C   0  0  0  0  0  0  0  0  0  0  0  0
    4.5818  -12.9516   24.4992 C   0  0  0  0  0  0  0  0  0  0  0  0
    5.7016  -12.8730   24.7980 O   0  0  0  0  0  0  0  0  0  0  0  0
    3.7996  -12.2451   23.3911 N   0  0  0  0  0  0  0  0  0  0  0  0
    4.2009  -11.2277   22.4797 C   0  0  0  0  0  0  0  0  0  0  0  0
    4.4243   -9.9093   23.1912 C   0  0  0  0  0  0  0  0  0  0  0  0
    3.7238   -9.5778   24.3485 C   0  0  0  0  0  0  0  0  0  0  0  0
    4.0916   -8.4605   25.0985 C   0  0  0  0  0  0  0  0  0  0  0  0
    5.1903   -7.6872   24.7617 C   0  0  0  0  0  0  0  0  0  0  0  0
    5.6012   -6.6650   25.6733 C   0  0  0  0  0  0  0  0  0  0  0  0
    5.8460   -5.8797   26.4897 N   0  0  0  0  0  0  0  0  0  0  0  0
    5.8017   -7.9278   23.5480 C   0  0  0  0  0  0  0  0  0  0  0  0
    5.3545   -8.9755   22.7201 C   0  0  0  0  0  0  0  0  0  0  0  0
    5.8763   -9.0675   21.3299 C   0  0  0  0  0  0  0  0  0  0  0  0
    4.3074  -15.0733   26.1714 S   0  0  0  0  0  0  0  0  0  0  0  0
  1  2  3  0
  2  3  1  0
  3  4  2  0
  4  5  1  0
  5  6  2  0
  6  7  1  0
  7  8  2  0
  7  9  1  0
  9 10  1  0
 10 11  1  0
 11 12  2  0
 12 13  1  0
 13 14  2  0
 14 15  1  0
 15 16  3  0
 14 17  1  0
 17 18  2  0
 18 19  1  0
  6 20  1  0
 20  3  1  0
 18 11  1  0
M  END
>  <inspiration_score>  (280) 
0.626

>  <HIPPO Pose ID>  (280) 
1499923

>  <ref_pdb>  (280) 
x0555a

>  <ref_mols>  (280) 
x0787a

>  <HIPPO Compound ID>  (280) 
475584

>  <energy_score>  (280) 
-192.526075

>  <tags>  (280) 
CpKRS_FrAncestor_bulkdock_iter1,CpKRS_FrAncestor_bulkdock_iter1_cluster_best5,fragmenstein_placed,CpKRS_FrAncestor_bulkdock_iter1_exported,BulkDock Fragalysis export

>  <inchikey>  (280) 
CXHDYYKUWVNUOB-UHFFFAOYSA-N

>  <placement_batch>  (280) 
CpKRS_FrAncestor_bulkdock_iter1_cluster_best5

>  <alias>  (280) 
CXHDYYKUWVNUOB-UHFFFAOYSA-N-P63

>  <name>  (280) 
CXHDYYKUWVNUOB-UHFFFAOYSA-N-P63

>  <smiles>  (280) 
C#Cc1ccc(C(=O)NCc2ccc(C#N)cc2C)s1

>  <subsites>  (280) 


>  <distance_score>  (280) 
0.836251

$$$$
JUFANTXQXGBRHG-UHFFFAOYSA-N-P63
     RDKit          3D

 20 22  0  0  0  0  0  0  0  0999 V2000
    6.6179   -7.0807   24.6826 C   0  0  0  0  0  0  0  0  0  0  0  0
    5.6408   -8.1122   24.2658 C   0  0  0  0  0  0  0  0  0  0  0  0
    5.6820   -9.0617   23.2659 C   0  0  0  0  0  0  0  0  0  0  0  0
    4.5369   -9.8978   23.4038 C   0  0  0  0  0  0  0  0  0  0  0  0
    4.2304  -11.0969   22.6328 C   0  0  0  0  0  0  0  0  0  0  0  0
    4.5848  -11.2175   21.4658 O   0  0  0  0  0  0  0  0  0  0  0  0
    3.5678  -12.0926   23.3248 N   0  0  0  0  0  0  0  0  0  0  0  0
    2.1049  -12.1845   23.3307 C   0  0  0  0  0  0  0  0  0  0  0  0
    1.4881  -12.4493   24.7181 C   0  0  0  0  0  0  0  0  0  0  0  0
    2.2769  -13.4617   25.4493 C   0  0  0  0  0  0  0  0  0  0  0  0
    1.7402  -14.1971   26.4836 N   0  0  0  0  0  0  0  0  0  0  0  0
    2.6556  -15.0444   26.9273 C   0  0  0  0  0  0  0  0  0  0  0  0
    2.4862  -16.0117   28.0550 C   0  0  0  0  0  0  0  0  0  0  0  0
    2.9793  -17.2451   27.7683 F   0  0  0  0  0  0  0  0  0  0  0  0
    1.1809  -16.1968   28.4167 F   0  0  0  0  0  0  0  0  0  0  0  0
    4.2032  -14.9316   26.1584 S   0  0  0  0  0  0  0  0  0  0  0  0
    3.5929  -13.7150   25.1406 C   0  0  0  0  0  0  0  0  0  0  0  0
    4.3798  -13.0648   24.0601 C   0  0  0  0  0  0  0  0  0  0  0  0
    3.7745   -9.3349   24.4076 C   0  0  0  0  0  0  0  0  0  0  0  0
    4.4469   -8.2596   24.9219 N   0  0  0  0  0  0  0  0  0  0  0  0
  1  2  1  0
  2  3  2  0
  3  4  1  0
  4  5  1  0
  5  6  2  0
  5  7  1  0
  7  8  1  0
  8  9  1  0
  9 10  1  0
 10 11  1  0
 11 12  2  0
 12 13  1  0
 13 14  1  0
 13 15  1  0
 12 16  1  0
 16 17  1  0
 17 18  1  0
  4 19  2  0
 19 20  1  0
 20  2  1  0
 18  7  1  0
 17 10  2  0
M  END
>  <inspiration_score>  (281) 
0.569

>  <HIPPO Pose ID>  (281) 
1501141

>  <ref_pdb>  (281) 
x0555a

>  <ref_mols>  (281) 
x0787a

>  <HIPPO Compound ID>  (281) 
475870

>  <energy_score>  (281) 
-70.828931

>  <tags>  (281) 
CpKRS_FrAncestor_bulkdock_iter1,CpKRS_FrAncestor_bulkdock_iter1_cluster_best5,fragmenstein_placed,CpKRS_FrAncestor_bulkdock_iter1_exported,BulkDock Fragalysis export

>  <inchikey>  (281) 
JUFANTXQXGBRHG-UHFFFAOYSA-N

>  <placement_batch>  (281) 
CpKRS_FrAncestor_bulkdock_iter1_cluster_best5

>  <alias>  (281) 
JUFANTXQXGBRHG-UHFFFAOYSA-N-P63

>  <name>  (281) 
JUFANTXQXGBRHG-UHFFFAOYSA-N-P63

>  <smiles>  (281) 
Cc1cc(C(=O)N2CCc3nc(C(F)F)sc3C2)c[nH]1

>  <subsites>  (281) 


>  <distance_score>  (281) 
0.903085

$$$$
C453704-P15
     RDKit          3D

 20 22  0  0  0  0  0  0  0  0999 V2000
    1.0414  -26.8654   17.4961 C   0  0  0  0  0  0  0  0  0  0  0  0
    2.1709  -25.9814   17.9456 C   0  0  0  0  0  0  0  0  0  0  0  0
    2.3997  -25.8161   19.3171 C   0  0  0  0  0  0  0  0  0  0  0  0
    3.4628  -25.0393   19.7384 C   0  0  0  0  0  0  0  0  0  0  0  0
    4.2822  -24.3828   18.8909 N   0  0  0  0  0  0  0  0  0  0  0  0
    4.0406  -24.5452   17.5661 C   0  0  0  0  0  0  0  0  0  0  0  0
    3.0601  -25.3833   17.0375 C   0  0  0  0  0  0  0  0  0  0  0  0
    3.1561  -25.8165   15.6091 C   0  0  0  0  0  0  0  0  0  0  0  0
    2.4446  -25.1159   14.5968 N   0  0  0  0  0  0  0  0  0  0  0  0
    1.5644  -25.6401   13.4496 C   0  0  0  0  0  0  0  0  0  0  0  0
    1.2196  -26.7234   13.1974 O   0  0  0  0  0  0  0  0  0  0  0  0
    1.2084  -24.5539   12.4906 C   0  0  0  0  0  0  0  0  0  0  0  0
    0.8839  -23.2514   12.8829 C   0  0  0  0  0  0  0  0  0  0  0  0
    0.6695  -22.2524   11.9142 C   0  0  0  0  0  0  0  0  0  0  0  0
    0.7498  -22.5413   10.5520 C   0  0  0  0  0  0  0  0  0  0  0  0
    0.9784  -23.8483   10.1743 C   0  0  0  0  0  0  0  0  0  0  0  0
    1.2300  -24.8266   11.1266 C   0  0  0  0  0  0  0  0  0  0  0  0
    1.4856  -26.0521   10.5505 O   0  0  0  0  0  0  0  0  0  0  0  0
    0.9072  -25.9303    9.2340 C   0  0  0  0  0  0  0  0  0  0  0  0
    0.9852  -24.4644    8.8244 C   0  0  0  0  0  0  0  0  0  0  0  0
  1  2  1  0
  2  3  2  0
  3  4  1  0
  4  5  2  0
  5  6  1  0
  6  7  2  0
  7  8  1  0
  8  9  1  0
  9 10  1  0
 10 11  2  0
 10 12  1  0
 12 13  2  0
 13 14  1  0
 14 15  2  0
 15 16  1  0
 16 17  2  0
 17 18  1  0
 18 19  1  0
 19 20  1  0
  7  2  1  0
 17 12  1  0
 20 16  1  0
M  END
>  <inspiration_score>  (282) 
0.631

>  <HIPPO Pose ID>  (282) 
1508272

>  <ref_pdb>  (282) 
x0421b

>  <ref_mols>  (282) 
x0426b

>  <HIPPO Compound ID>  (282) 
453704

>  <energy_score>  (282) 
-194.430694

>  <tags>  (282) 
CpKRS_FrAncestor_bulkdock_iter1,CpKRS_FrAncestor_bulkdock_iter1_cluster_best5,fragmenstein_placed,CpKRS_FrAncestor_bulkdock_iter1_exported,BulkDock Fragalysis export

>  <inchikey>  (282) 
ZMUGHBVXGTVDAB-UHFFFAOYSA-N

>  <placement_batch>  (282) 
CpKRS_FrAncestor_bulkdock_iter1_cluster_best5

>  <alias>  (282) 
C453704-P15

>  <name>  (282) 
C453704-P15

>  <smiles>  (282) 
Cc1ccncc1CNC(=O)c1cccc2c1OCC2

>  <subsites>  (282) 


>  <distance_score>  (282) 
0.916622

$$$$
C482142-P64
     RDKit          3D

 20 23  0  0  0  0  0  0  0  0999 V2000
    2.8499  -15.4893   24.0324 C   0  0  0  0  0  0  0  0  0  0  0  0
    3.6355  -14.2914   24.5039 C   0  0  1  0  0  0  0  0  0  0  0  0
    4.7297  -13.8248   23.5783 C   0  0  0  0  0  0  0  0  0  0  0  0
    5.7031  -14.4506   23.5159 O   0  0  0  0  0  0  0  0  0  0  0  0
    4.3398  -12.5330   22.8746 N   0  0  0  0  0  0  0  0  0  0  0  0
    5.0951  -11.6808   22.0155 C   0  0  0  0  0  0  0  0  0  0  0  0
    5.1891  -10.2823   22.5387 C   0  0  0  0  0  0  0  0  0  0  0  0
    5.1271   -9.1095   21.7155 C   0  0  0  0  0  0  0  0  0  0  0  0
    5.3210   -7.9728   22.4654 C   0  0  0  0  0  0  0  0  0  0  0  0
    5.5849   -8.4283   24.0887 S   0  0  0  0  0  0  0  0  0  0  0  0
    5.3823  -10.0520   23.8399 N   0  0  0  0  0  0  0  0  0  0  0  0
    2.9858  -13.2657   25.4297 C   0  0  1  0  0  0  0  0  0  0  0  0
    1.6993  -13.4893   26.2002 C   0  0  0  0  0  0  0  0  0  0  0  0
    2.1011  -14.4558   27.2789 C   0  0  0  0  0  0  0  0  0  0  0  0
    1.3584  -14.8193   28.3822 C   0  0  0  0  0  0  0  0  0  0  0  0
    1.9590  -15.6162   29.3489 C   0  0  0  0  0  0  0  0  0  0  0  0
    3.2579  -16.1006   29.1711 C   0  0  0  0  0  0  0  0  0  0  0  0
    3.9858  -15.7450   28.0357 C   0  0  0  0  0  0  0  0  0  0  0  0
    3.4153  -14.9004   27.1006 C   0  0  0  0  0  0  0  0  0  0  0  0
    4.0637  -14.2108   25.9579 C   0  0  1  0  0  0  0  0  0  0  0  0
  2  1  1  6
  2  3  1  0
  3  4  2  0
  3  5  1  0
  5  6  1  0
  6  7  1  0
  7  8  1  0
  8  9  2  0
  9 10  1  0
 10 11  1  0
  2 12  1  0
 12 13  1  1
 13 14  1  0
 14 15  2  0
 15 16  1  0
 16 17  2  0
 17 18  1  0
 18 19  2  0
 20 19  1  1
 20  2  1  0
 11  7  2  0
 20 12  1  0
 19 14  1  0
M  END
>  <inspiration_score>  (283) 
0.58

>  <HIPPO Pose ID>  (283) 
1513233

>  <ref_pdb>  (283) 
x0479b

>  <ref_mols>  (283) 
x0787b

>  <HIPPO Compound ID>  (283) 
482142

>  <energy_score>  (283) 
-77.824886

>  <tags>  (283) 
CpKRS_FrAncestor_bulkdock_iter1,CpKRS_FrAncestor_bulkdock_iter1_cluster_best5,fragmenstein_placed,CpKRS_FrAncestor_bulkdock_iter1_exported,BulkDock Fragalysis export

>  <inchikey>  (283) 
UTIFIJHHSYICCP-UHFFFAOYSA-N

>  <placement_batch>  (283) 
CpKRS_FrAncestor_bulkdock_iter1_cluster_best5

>  <alias>  (283) 
C482142-P64

>  <name>  (283) 
C482142-P64

>  <smiles>  (283) 
C[C@]1(C(=O)NCc2ccsn2)[C@@H]2c3ccccc3C[C@@H]21

>  <subsites>  (283) 


>  <distance_score>  (283) 
0.959304

$$$$
CXKJTOHOHOKBLY-UHFFFAOYSA-N-P26
     RDKit          3D

 20 21  0  0  0  0  0  0  0  0999 V2000
    4.7949    1.2806   44.1647 C   0  0  0  0  0  0  0  0  0  0  0  0
    4.3711    2.4257   44.9552 N   0  0  0  0  0  0  0  0  0  0  0  0
    4.0750    2.2766   46.3596 C   0  0  0  0  0  0  0  0  0  0  0  0
    4.0428    3.6006   44.3103 C   0  0  0  0  0  0  0  0  0  0  0  0
    3.5403    4.7091   44.9988 C   0  0  0  0  0  0  0  0  0  0  0  0
    3.4514    5.9475   44.3798 C   0  0  0  0  0  0  0  0  0  0  0  0
    3.8301    6.1087   43.0459 C   0  0  0  0  0  0  0  0  0  0  0  0
    3.9449    7.4005   42.5231 N   0  0  0  0  0  0  0  0  0  0  0  0
    2.6369    8.0983   42.5098 C   0  0  0  0  0  0  0  0  0  0  0  0
    2.7775    9.5401   41.9957 C   0  0  0  0  0  0  0  0  0  0  0  0
    3.5057    9.5601   40.7243 N   0  0  0  0  0  0  0  0  0  0  0  0
    3.4544   10.8047   40.0059 C   0  0  0  0  0  0  0  0  0  0  0  0
    3.3659   10.5558   38.4743 C   0  0  0  0  0  0  0  0  0  0  0  0
    2.3604    9.4311   38.1456 C   0  0  0  0  0  0  0  0  0  0  0  0
    4.7126   10.1634   37.8476 C   0  0  0  0  0  0  0  0  0  0  0  0
    2.9105   11.8781   37.8378 C   0  0  0  0  0  0  0  0  0  0  0  0
    4.8421    8.9808   40.8801 C   0  0  0  0  0  0  0  0  0  0  0  0
    4.6662    7.5094   41.2336 C   0  0  0  0  0  0  0  0  0  0  0  0
    4.1874    4.9768   42.3221 C   0  0  0  0  0  0  0  0  0  0  0  0
    4.2964    3.7508   42.9466 C   0  0  0  0  0  0  0  0  0  0  0  0
  1  2  1  0
  2  3  1  0
  2  4  1  0
  4  5  2  0
  5  6  1  0
  6  7  2  0
  7  8  1  0
  8  9  1  0
  9 10  1  0
 10 11  1  0
 11 12  1  0
 12 13  1  0
 13 14  1  0
 13 15  1  0
 13 16  1  0
 11 17  1  0
 17 18  1  0
  7 19  1  0
 19 20  2  0
 20  4  1  0
 18  8  1  0
M  END
>  <inspiration_score>  (284) 
0.588

>  <HIPPO Pose ID>  (284) 
1535729

>  <ref_pdb>  (284) 
x0421d

>  <ref_mols>  (284) 
x0479b

>  <HIPPO Compound ID>  (284) 
490402

>  <energy_score>  (284) 
-41.973263

>  <tags>  (284) 
CpKRS_FrAncestor_bulkdock_iter1,CpKRS_FrAncestor_bulkdock_iter1_cluster_best5,fragmenstein_placed,CpKRS_FrAncestor_bulkdock_iter1_exported,BulkDock Fragalysis export

>  <inchikey>  (284) 
CXKJTOHOHOKBLY-UHFFFAOYSA-N

>  <placement_batch>  (284) 
CpKRS_FrAncestor_bulkdock_iter1_cluster_best5

>  <alias>  (284) 
CXKJTOHOHOKBLY-UHFFFAOYSA-N-P26

>  <name>  (284) 
CXKJTOHOHOKBLY-UHFFFAOYSA-N-P26

>  <smiles>  (284) 
CN(C)c1ccc(N2CCN(CC(C)(C)C)CC2)cc1

>  <subsites>  (284) 


>  <distance_score>  (284) 
0.678598

$$$$
AZRSXAAXIKGNJP-UHFFFAOYSA-N-P24
     RDKit          3D

 20 23  0  0  0  0  0  0  0  0999 V2000
    4.3774    4.1350   43.1293 C   0  0  0  0  0  0  0  0  0  0  0  0
    4.1378    3.2319   44.1778 C   0  0  0  0  0  0  0  0  0  0  0  0
    3.3346    3.6424   45.2215 C   0  0  0  0  0  0  0  0  0  0  0  0
    2.6987    4.8725   45.1734 C   0  0  0  0  0  0  0  0  0  0  0  0
    2.9412    5.7627   44.1536 C   0  0  0  0  0  0  0  0  0  0  0  0
    3.8421    5.4453   43.1260 C   0  0  0  0  0  0  0  0  0  0  0  0
    4.2585    6.4253   42.2164 N   0  0  0  0  0  0  0  0  0  0  0  0
    3.6323    7.7531   42.3066 C   0  0  0  0  0  0  0  0  0  0  0  0
    4.4067    8.7907   41.4874 C   0  0  0  0  0  0  0  0  0  0  0  0
    4.4648    8.4647   40.0541 N   0  0  0  0  0  0  0  0  0  0  0  0
    3.1432    8.3625   39.4179 C   0  0  0  0  0  0  0  0  0  0  0  0
    2.2470    9.5637   39.7307 C   0  0  0  0  0  0  0  0  0  0  0  0
    2.6625   10.9488   39.1501 C   0  0  0  0  0  0  0  0  0  0  0  0
    0.8866   11.4227   39.1709 S   0  0  0  0  0  0  0  0  0  0  0  0
    0.8953    9.6009   38.9754 C   0  0  0  0  0  0  0  0  0  0  0  0
    5.2089    7.1807   39.9598 C   0  0  0  0  0  0  0  0  0  0  0  0
    4.7509    6.0107   40.8810 C   0  0  0  0  0  0  0  0  0  0  0  0
    1.7488    5.0618   46.3035 C   0  0  0  0  0  0  0  0  0  0  0  0
    2.3053    4.0465   47.2902 C   0  0  0  0  0  0  0  0  0  0  0  0
    2.9631    2.9393   46.4772 C   0  0  0  0  0  0  0  0  0  0  0  0
  1  2  2  0
  2  3  1  0
  3  4  2  0
  4  5  1  0
  5  6  2  0
  6  7  1  0
  7  8  1  0
  8  9  1  0
  9 10  1  0
 10 11  1  0
 11 12  1  0
 12 13  1  0
 13 14  1  0
 14 15  1  0
 10 16  1  0
 16 17  1  0
  4 18  1  0
 18 19  1  0
 19 20  1  0
  6  1  1  0
 17  7  1  0
 20  3  1  0
 15 12  1  0
M  END
>  <inspiration_score>  (285) 
0.536

>  <HIPPO Pose ID>  (285) 
1535889

>  <ref_pdb>  (285) 
x0421d

>  <ref_mols>  (285) 
x0479c

>  <HIPPO Compound ID>  (285) 
490449

>  <energy_score>  (285) 
-38.801582

>  <tags>  (285) 
CpKRS_FrAncestor_bulkdock_iter1,CpKRS_FrAncestor_bulkdock_iter1_cluster_best5,fragmenstein_placed,CpKRS_FrAncestor_bulkdock_iter1_exported,BulkDock Fragalysis export

>  <inchikey>  (285) 
AZRSXAAXIKGNJP-UHFFFAOYSA-N

>  <placement_batch>  (285) 
CpKRS_FrAncestor_bulkdock_iter1_cluster_best5

>  <alias>  (285) 
AZRSXAAXIKGNJP-UHFFFAOYSA-N-P24

>  <name>  (285) 
AZRSXAAXIKGNJP-UHFFFAOYSA-N-P24

>  <smiles>  (285) 
c1cc2c(cc1N1CCN(CC3CSC3)CC1)CCC2

>  <subsites>  (285) 


>  <distance_score>  (285) 
0.866946

$$$$
C80328-P1
     RDKit          3D

 15 16  0  0  0  0  0  0  0  0999 V2000
    1.6688  -15.1100   28.0849 C   0  0  0  0  0  0  0  0  0  0  0  0
    2.5144  -14.8225   26.9583 N   0  0  0  0  0  0  0  0  0  0  0  0
    2.2748  -13.7419   26.0411 C   0  0  0  0  0  0  0  0  0  0  0  0
    3.3939  -13.9960   25.0665 C   0  0  1  0  0  0  0  0  0  0  0  0
    3.7767  -12.9027   24.0760 C   0  0  0  0  0  0  0  0  0  0  0  0
    3.8962  -11.6053   24.6630 O   0  0  0  0  0  0  0  0  0  0  0  0
    4.3280  -10.6048   23.8258 C   0  0  0  0  0  0  0  0  0  0  0  0
    4.5673   -9.3708   24.4360 C   0  0  0  0  0  0  0  0  0  0  0  0
    5.0316   -8.2795   23.6973 C   0  0  0  0  0  0  0  0  0  0  0  0
    5.2313   -8.4061   22.3270 C   0  0  0  0  0  0  0  0  0  0  0  0
    4.9819   -9.6263   21.7056 C   0  0  0  0  0  0  0  0  0  0  0  0
    4.5392  -10.7239   22.4505 C   0  0  0  0  0  0  0  0  0  0  0  0
    4.4682  -14.4453   25.9030 O   0  0  0  0  0  0  0  0  0  0  0  0
    3.8656  -15.1198   26.9416 C   0  0  0  0  0  0  0  0  0  0  0  0
    4.4615  -15.8338   27.7323 O   0  0  0  0  0  0  0  0  0  0  0  0
  1  2  1  0
  2  3  1  0
  3  4  1  0
  4  5  1  1
  5  6  1  0
  6  7  1  0
  7  8  2  0
  8  9  1  0
  9 10  2  0
 10 11  1  0
 11 12  2  0
  4 13  1  0
 13 14  1  0
 14 15  2  0
 14  2  1  0
 12  7  1  0
M  END
>  <inspiration_score>  (286) 
0.607

>  <HIPPO Pose ID>  (286) 
1547674

>  <ref_pdb>  (286) 
x0456a

>  <ref_mols>  (286) 
x0501a

>  <HIPPO Compound ID>  (286) 
80328

>  <energy_score>  (286) 
-39.561331

>  <tags>  (286) 
CpKRS_FrAncestor_bulkdock_iter1,CpKRS_FrAncestor_bulkdock_iter1_cluster_best5,fragmenstein_placed,CpKRS_FrAncestor_bulkdock_iter1_exported,BulkDock Fragalysis export

>  <inchikey>  (286) 
XRVNWZGGSMDUCK-UHFFFAOYSA-N

>  <placement_batch>  (286) 
CpKRS_FrAncestor_bulkdock_iter1_cluster_best5

>  <alias>  (286) 
C80328-P1

>  <name>  (286) 
C80328-P1

>  <smiles>  (286) 
CN1C[C@@H](COc2ccccc2)OC1=O

>  <subsites>  (286) 


>  <distance_score>  (286) 
0.580047

$$$$
C80499-P53
     RDKit          3D

 15 16  0  0  0  0  0  0  0  0999 V2000
   20.7666    7.2635   25.1949 O   0  0  0  0  0  0  0  0  0  0  0  0
   21.6883    8.2254   25.7456 S   0  0  0  0  0  0  0  0  0  0  0  0
   21.2803    9.1882   26.7442 O   0  0  0  0  0  0  0  0  0  0  0  0
   22.9747    7.3202   26.3920 N   0  0  0  0  0  0  0  0  0  0  0  0
   24.2184    6.9723   25.6448 C   0  0  0  0  0  0  0  0  0  0  0  0
   25.1400    5.8967   26.2664 C   0  0  0  0  0  0  0  0  0  0  0  0
   25.4971    5.4696   24.8109 C   0  0  0  0  0  0  0  0  0  0  0  0
   25.7504    3.7095   24.5514 Cl  0  0  0  0  0  0  0  0  0  0  0  0
   26.8948    6.3837   24.0794 Cl  0  0  0  0  0  0  0  0  0  0  0  0
   24.0937    6.0233   24.4359 C   0  0  0  0  0  0  0  0  0  0  0  0
   22.2987    9.1606   24.3585 C   0  0  0  0  0  0  0  0  0  0  0  0
   21.7857    9.2982   23.0764 C   0  0  0  0  0  0  0  0  0  0  0  0
   22.7411    9.9971   22.3110 C   0  0  0  0  0  0  0  0  0  0  0  0
   23.7547   10.3293   23.1709 C   0  0  0  0  0  0  0  0  0  0  0  0
   23.5027    9.8358   24.4060 O   0  0  0  0  0  0  0  0  0  0  0  0
  1  2  2  0
  2  3  2  0
  2  4  1  0
  4  5  1  0
  5  6  1  0
  6  7  1  0
  7  8  1  0
  7  9  1  0
  7 10  1  0
  2 11  1  0
 11 12  2  0
 12 13  1  0
 13 14  2  0
 14 15  1  0
 10  5  1  0
 15 11  1  0
M  END
>  <inspiration_score>  (287) 
0.51

>  <HIPPO Pose ID>  (287) 
1548161

>  <ref_pdb>  (287) 
x0456a

>  <ref_mols>  (287) 
x0639b

>  <HIPPO Compound ID>  (287) 
80499

>  <energy_score>  (287) 
-48.957297

>  <tags>  (287) 
CpKRS_FrAncestor_bulkdock_iter1,CpKRS_FrAncestor_bulkdock_iter1_cluster_best5,fragmenstein_placed,CpKRS_FrAncestor_bulkdock_iter1_exported,BulkDock Fragalysis export

>  <inchikey>  (287) 
DXPHGCKRZRXJFQ-UHFFFAOYSA-N

>  <placement_batch>  (287) 
CpKRS_FrAncestor_bulkdock_iter1_cluster_best5

>  <alias>  (287) 
C80499-P53

>  <name>  (287) 
C80499-P53

>  <smiles>  (287) 
O=S(=O)(NC1CC(Cl)(Cl)C1)c1ccco1

>  <subsites>  (287) 


>  <distance_score>  (287) 
0.800019

$$$$
NBGUGZSMPLCLKY-PHDIDXHHSA-N-P14
     RDKit          3D

 15 16  0  0  0  0  0  0  0  0999 V2000
    5.1219  -12.5438   24.6181 O   0  0  0  0  0  0  0  0  0  0  0  0
    4.0064  -12.3017   24.8583 C   0  0  0  0  0  0  0  0  0  0  0  0
    3.1817  -11.0223   24.5992 N   0  0  0  0  0  0  0  0  0  0  0  0
    3.5787   -9.7506   24.0812 C   0  0  0  0  0  0  0  0  0  0  0  0
    4.8206   -9.8800   23.2478 C   0  0  1  0  0  0  0  0  0  0  0  0
    4.7417  -10.7959   22.0067 C   0  0  0  0  0  0  0  0  0  0  0  0
    5.4094   -9.6752   21.2150 C   0  0  0  0  0  0  0  0  0  0  0  0
    4.9642   -8.6796   22.2861 C   0  0  1  0  0  0  0  0  0  0  0  0
    3.8138   -8.0201   21.9968 F   0  0  0  0  0  0  0  0  0  0  0  0
    3.1115  -13.1938   25.6005 C   0  0  0  0  0  0  0  0  0  0  0  0
    3.4876  -14.2806   26.3727 C   0  0  0  0  0  0  0  0  0  0  0  0
    2.1279  -14.8476   27.2700 S   0  0  0  0  0  0  0  0  0  0  0  0
    1.1752  -13.6906   26.4851 C   0  0  0  0  0  0  0  0  0  0  0  0
   -0.5145  -13.5803   26.6929 Cl  0  0  0  0  0  0  0  0  0  0  0  0
    1.7614  -12.8434   25.6939 N   0  0  0  0  0  0  0  0  0  0  0  0
  1  2  2  0
  2  3  1  0
  3  4  1  0
  5  4  1  6
  5  6  1  0
  6  7  1  0
  7  8  1  0
  8  9  1  6
  2 10  1  0
 10 11  2  0
 11 12  1  0
 12 13  1  0
 13 14  1  0
 13 15  2  0
  8  5  1  0
 15 10  1  0
M  END
>  <inspiration_score>  (288) 
0.61

>  <HIPPO Pose ID>  (288) 
1556981

>  <ref_pdb>  (288) 
x0502b

>  <ref_mols>  (288) 
x0421d

>  <HIPPO Compound ID>  (288) 
83131

>  <energy_score>  (288) 
-376.590058

>  <tags>  (288) 
CpKRS_FrAncestor_bulkdock_iter1,CpKRS_FrAncestor_bulkdock_iter1_cluster_best5,fragmenstein_placed,CpKRS_FrAncestor_bulkdock_iter1_exported,BulkDock Fragalysis export

>  <inchikey>  (288) 
NBGUGZSMPLCLKY-UHFFFAOYSA-N

>  <placement_batch>  (288) 
CpKRS_FrAncestor_bulkdock_iter1_cluster_best5

>  <alias>  (288) 
NBGUGZSMPLCLKY-PHDIDXHHSA-N-P14

>  <name>  (288) 
NBGUGZSMPLCLKY-PHDIDXHHSA-N-P14

>  <smiles>  (288) 
O=C(NC[C@H]1CC[C@H]1F)c1csc(Cl)n1

>  <subsites>  (288) 


>  <distance_score>  (288) 
0.819799

$$$$
FFOMLRFXTRGYDW-JQWIXIFHSA-N-P62
     RDKit          3D

 20 21  0  0  0  0  0  0  0  0999 V2000
    5.4528  -15.5780   26.9293 C   0  0  0  0  0  0  0  0  0  0  0  0
    3.9880  -15.4722   27.1885 C   0  0  0  0  0  0  0  0  0  0  0  0
    3.4039  -16.0158   28.3122 C   0  0  0  0  0  0  0  0  0  0  0  0
    1.7623  -15.6118   28.4555 S   0  0  0  0  0  0  0  0  0  0  0  0
    1.7526  -14.8793   26.9178 C   0  0  0  0  0  0  0  0  0  0  0  0
    3.0170  -14.7628   26.3648 C   0  0  0  0  0  0  0  0  0  0  0  0
    3.3717  -13.9586   25.1643 C   0  0  0  0  0  0  0  0  0  0  0  0
    4.4011  -14.2193   24.6190 O   0  0  0  0  0  0  0  0  0  0  0  0
    2.4248  -12.9136   24.9204 N   0  0  0  0  0  0  0  0  0  0  0  0
    2.4641  -11.7879   24.0051 C   0  0  0  0  0  0  0  0  0  0  0  0
    3.3994  -10.8376   24.8217 C   0  0  0  0  0  0  0  0  0  0  0  0
    3.4235  -11.0903   25.9895 O   0  0  0  0  0  0  0  0  0  0  0  0
    4.0591   -9.8345   24.0958 N   0  0  0  0  0  0  0  0  0  0  0  0
    4.9128   -8.6939   24.5611 C   0  0  0  0  0  0  0  0  0  0  0  0
    5.2324   -7.5915   23.5804 C   0  0  0  0  0  0  0  0  0  0  0  0
    5.5139   -8.1928   22.2426 C   0  0  2  0  0  0  0  0  0  0  0  0
    4.2775   -8.5592   21.4718 C   0  0  0  0  0  0  0  0  0  0  0  0
    6.2716   -9.4308   22.6006 C   0  0  0  0  0  0  0  0  0  0  0  0
    5.4657  -10.3696   23.5666 C   0  0  2  0  0  0  0  0  0  0  0  0
    5.2555  -11.6436   22.7023 C   0  0  0  0  0  0  0  0  0  0  0  0
  1  2  1  0
  2  3  2  0
  3  4  1  0
  4  5  1  0
  5  6  2  0
  6  7  1  0
  7  8  2  0
  7  9  1  0
  9 10  1  0
 10 11  1  0
 11 12  2  0
 11 13  1  0
 13 14  1  0
 14 15  1  0
 15 16  1  0
 16 17  1  1
 16 18  1  0
 18 19  1  0
 19 20  1  6
  6  2  1  0
 19 13  1  0
M  END
>  <inspiration_score>  (289) 
0.54

>  <HIPPO Pose ID>  (289) 
1559961

>  <ref_pdb>  (289) 
x0759b

>  <ref_mols>  (289) 
x0759a

>  <HIPPO Compound ID>  (289) 
83955

>  <energy_score>  (289) 
-227.152309

>  <tags>  (289) 
CpKRS_FrAncestor_bulkdock_iter1,CpKRS_FrAncestor_bulkdock_iter1_cluster_best5,fragmenstein_placed,CpKRS_FrAncestor_bulkdock_iter1_exported,BulkDock Fragalysis export

>  <inchikey>  (289) 
FFOMLRFXTRGYDW-UHFFFAOYSA-N

>  <placement_batch>  (289) 
CpKRS_FrAncestor_bulkdock_iter1_cluster_best5

>  <alias>  (289) 
FFOMLRFXTRGYDW-JQWIXIFHSA-N-P62

>  <name>  (289) 
FFOMLRFXTRGYDW-JQWIXIFHSA-N-P62

>  <smiles>  (289) 
Cc1cscc1C(=O)NCC(=O)N1CC[C@H](C)C[C@@H]1C

>  <subsites>  (289) 


>  <distance_score>  (289) 
0.937397

$$$$
KYLDGKATEIGLQL-UHFFFAOYSA-N-P25
     RDKit          3D

 20 22  0  0  0  0  0  0  0  0999 V2000
    2.0673    8.6214   38.2694 O   0  0  0  0  0  0  0  0  0  0  0  0
    2.8218    9.2393   39.0174 C   0  0  0  0  0  0  0  0  0  0  0  0
    3.8326    8.6240   39.6997 O   0  0  0  0  0  0  0  0  0  0  0  0
    3.3185    7.8351   40.7650 C   0  0  2  0  0  0  0  0  0  0  0  0
    3.2340    8.6777   42.0321 C   0  0  0  0  0  0  0  0  0  0  0  0
    3.0805    7.6160   43.0959 C   0  0  0  0  0  0  0  0  0  0  0  0
    3.9515    6.5357   42.6498 N   0  0  0  0  0  0  0  0  0  0  0  0
    3.9692    5.3175   43.3059 C   0  0  0  0  0  0  0  0  0  0  0  0
    3.5092    5.1896   44.6318 C   0  0  0  0  0  0  0  0  0  0  0  0
    3.6008    3.9873   45.3416 C   0  0  0  0  0  0  0  0  0  0  0  0
    4.1774    2.8776   44.7458 C   0  0  0  0  0  0  0  0  0  0  0  0
    4.6303    2.9621   43.4379 C   0  0  0  0  0  0  0  0  0  0  0  0
    4.5261    4.1656   42.7301 C   0  0  0  0  0  0  0  0  0  0  0  0
    4.2437    6.6845   41.2050 C   0  0  0  0  0  0  0  0  0  0  0  0
    2.7031   10.7292   39.3783 C   0  0  0  0  0  0  0  0  0  0  0  0
    2.1487   11.7020   38.3244 C   0  0  0  0  0  0  0  0  0  0  0  0
    3.0425   12.7796   38.9425 C   0  0  0  0  0  0  0  0  0  0  0  0
    3.5118   13.6844   38.0608 F   0  0  0  0  0  0  0  0  0  0  0  0
    2.4952   13.4804   39.9637 F   0  0  0  0  0  0  0  0  0  0  0  0
    3.9700   11.6124   39.3736 C   0  0  0  0  0  0  0  0  0  0  0  0
  1  2  2  0
  2  3  1  0
  4  3  1  6
  4  5  1  0
  5  6  1  0
  6  7  1  0
  7  8  1  0
  8  9  2  0
  9 10  1  0
 10 11  2  0
 11 12  1  0
 12 13  2  0
  7 14  1  0
  2 15  1  0
 15 16  1  0
 16 17  1  0
 17 18  1  0
 17 19  1  0
 17 20  1  0
 14  4  1  0
 20 15  1  0
 13  8  1  0
M  END
>  <inspiration_score>  (290) 
0.707

>  <HIPPO Pose ID>  (290) 
1565422

>  <ref_pdb>  (290) 
x0759b

>  <ref_mols>  (290) 
x0479a

>  <HIPPO Compound ID>  (290) 
84973

>  <energy_score>  (290) 
-33.483508

>  <tags>  (290) 
CpKRS_FrAncestor_bulkdock_iter1,CpKRS_FrAncestor_bulkdock_iter1_cluster_best5,fragmenstein_placed,CpKRS_FrAncestor_bulkdock_iter1_exported,BulkDock Fragalysis export

>  <inchikey>  (290) 
KYLDGKATEIGLQL-UHFFFAOYSA-N

>  <placement_batch>  (290) 
CpKRS_FrAncestor_bulkdock_iter1_cluster_best5

>  <alias>  (290) 
KYLDGKATEIGLQL-UHFFFAOYSA-N-P25

>  <name>  (290) 
KYLDGKATEIGLQL-UHFFFAOYSA-N-P25

>  <smiles>  (290) 
O=C(OC1CCN(c2ccccc2)C1)C1CC(F)(F)C1

>  <subsites>  (290) 


>  <distance_score>  (290) 
0.652623

$$$$
JHYUEXMMMNAPPG-UHFFFAOYSA-N-P63
     RDKit          3D

 20 22  0  0  0  0  0  0  0  0999 V2000
    2.3297  -15.6325   29.5381 C   0  0  0  0  0  0  0  0  0  0  0  0
    3.0094  -16.6373   28.6195 C   0  0  0  0  0  0  0  0  0  0  0  0
    2.4237  -16.6092   27.2171 C   0  0  0  0  0  0  0  0  0  0  0  0
    2.7384  -15.3399   26.4903 C   0  0  0  0  0  0  0  0  0  0  0  0
    1.8485  -14.4141   26.1869 N   0  0  0  0  0  0  0  0  0  0  0  0
    2.4383  -13.5141   25.3289 C   0  0  0  0  0  0  0  0  0  0  0  0
    3.7625  -13.7361   25.0296 C   0  0  0  0  0  0  0  0  0  0  0  0
    4.3466  -15.0476   25.9351 S   0  0  0  0  0  0  0  0  0  0  0  0
    4.5717  -13.0019   24.0278 C   0  0  0  0  0  0  0  0  0  0  0  0
    3.7481  -12.0574   23.2644 N   0  0  0  0  0  0  0  0  0  0  0  0
    4.4085  -11.1113   22.5032 C   0  0  0  0  0  0  0  0  0  0  0  0
    4.7234  -11.3129   21.3369 O   0  0  0  0  0  0  0  0  0  0  0  0
    4.7695   -9.9049   23.2108 C   0  0  0  0  0  0  0  0  0  0  0  0
    5.7070   -8.9475   22.8561 C   0  0  0  0  0  0  0  0  0  0  0  0
    5.7520   -8.0146   23.9021 C   0  0  0  0  0  0  0  0  0  0  0  0
    6.5632   -6.9586   23.9813 F   0  0  0  0  0  0  0  0  0  0  0  0
    4.8163   -8.3501   24.8410 C   0  0  0  0  0  0  0  0  0  0  0  0
    4.2358   -9.5117   24.4147 N   0  0  0  0  0  0  0  0  0  0  0  0
    2.2799  -12.1139   23.3061 C   0  0  0  0  0  0  0  0  0  0  0  0
    1.6805  -12.4213   24.6919 C   0  0  0  0  0  0  0  0  0  0  0  0
  1  2  1  0
  2  3  1  0
  3  4  1  0
  4  5  2  0
  5  6  1  0
  6  7  2  0
  7  8  1  0
  7  9  1  0
  9 10  1  0
 10 11  1  0
 11 12  2  0
 11 13  1  0
 13 14  2  0
 14 15  1  0
 15 16  1  0
 15 17  2  0
 17 18  1  0
 10 19  1  0
 19 20  1  0
  8  4  1  0
 18 13  1  0
 20  6  1  0
M  END
>  <inspiration_score>  (291) 
0.565

>  <HIPPO Pose ID>  (291) 
1566226

>  <ref_pdb>  (291) 
x0759b

>  <ref_mols>  (291) 
x0787a

>  <HIPPO Compound ID>  (291) 
85156

>  <energy_score>  (291) 
-72.463022

>  <tags>  (291) 
CpKRS_FrAncestor_bulkdock_iter1,CpKRS_FrAncestor_bulkdock_iter1_cluster_best5,fragmenstein_placed,CpKRS_FrAncestor_bulkdock_iter1_exported,BulkDock Fragalysis export

>  <inchikey>  (291) 
JHYUEXMMMNAPPG-UHFFFAOYSA-N

>  <placement_batch>  (291) 
CpKRS_FrAncestor_bulkdock_iter1_cluster_best5

>  <alias>  (291) 
JHYUEXMMMNAPPG-UHFFFAOYSA-N-P63

>  <name>  (291) 
JHYUEXMMMNAPPG-UHFFFAOYSA-N-P63

>  <smiles>  (291) 
CCCc1nc2c(s1)CN(C(=O)c1cc(F)c[nH]1)CC2

>  <subsites>  (291) 


>  <distance_score>  (291) 
0.907459

$$$$
ZVSAAAADXCPTQN-UHFFFAOYSA-N-P12
     RDKit          3D

 21 26  0  0  0  0  0  0  0  0999 V2000
    5.7973  -13.7706   24.9389 O   0  0  0  0  0  0  0  0  0  0  0  0
    4.8077  -13.1614   24.8814 C   0  0  0  0  0  0  0  0  0  0  0  0
    4.5617  -11.7017   24.4901 N   0  0  0  0  0  0  0  0  0  0  0  0
    5.4562  -10.7148   24.0005 C   0  0  1  0  0  0  0  0  0  0  0  0
    5.3981  -10.6212   22.4896 C   0  0  1  0  0  0  0  0  0  0  0  0
    4.1979   -9.9721   21.8550 C   0  0  1  0  0  0  0  0  0  0  0  0
    3.0796   -9.5028   22.7830 C   0  0  0  0  0  0  0  0  0  0  0  0
    3.8029   -8.7270   23.8913 C   0  0  1  0  0  0  0  0  0  0  0  0
    5.0400   -9.3375   24.4995 C   0  0  2  0  0  0  0  0  0  0  0  0
    5.1825   -8.3338   23.3819 C   0  0  1  0  0  0  0  0  0  0  0  0
    5.4388   -9.1536   22.0938 C   0  0  1  0  0  0  0  0  0  0  0  0
    3.5091  -13.7146   25.3093 C   0  0  0  0  0  0  0  0  0  0  0  0
    3.2663  -14.9170   26.0090 C   0  0  0  0  0  0  0  0  0  0  0  0
    1.9099  -14.9375   26.2226 C   0  0  0  0  0  0  0  0  0  0  0  0
    1.4130  -13.7901   25.6781 N   0  0  0  0  0  0  0  0  0  0  0  0
    0.0329  -13.3787   25.5419 C   0  0  0  0  0  0  0  0  0  0  0  0
   -0.7026  -14.1253   24.4306 C   0  0  0  0  0  0  0  0  0  0  0  0
   -2.1583  -13.7875   24.7032 C   0  0  0  0  0  0  0  0  0  0  0  0
   -2.2759  -13.7686   26.2230 C   0  0  0  0  0  0  0  0  0  0  0  0
   -0.8605  -13.5596   26.7679 C   0  0  0  0  0  0  0  0  0  0  0  0
    2.3615  -13.0351   25.0940 N   0  0  0  0  0  0  0  0  0  0  0  0
  1  2  2  0
  2  3  1  0
  4  3  1  1
  5  4  1  1
  5  6  1  0
  6  7  1  1
  8  7  1  6
  8  9  1  0
  9 10  1  0
 10 11  1  0
  2 12  1  0
 12 13  1  0
 13 14  2  0
 14 15  1  0
 15 16  1  0
 16 17  1  0
 17 18  1  0
 18 19  1  0
 19 20  1  0
 15 21  1  0
  9  4  1  6
 21 12  2  0
 11  5  1  0
 20 16  1  0
 11  6  1  6
 10  8  1  6
M  END
>  <inspiration_score>  (292) 
0.744

>  <HIPPO Pose ID>  (292) 
1574841

>  <ref_pdb>  (292) 
x0502a

>  <ref_mols>  (292) 
x0421b

>  <HIPPO Compound ID>  (292) 
87963

>  <energy_score>  (292) 
-372.11247

>  <tags>  (292) 
CpKRS_FrAncestor_bulkdock_iter1,CpKRS_FrAncestor_bulkdock_iter1_cluster_best5,fragmenstein_placed,CpKRS_FrAncestor_bulkdock_iter1_exported,BulkDock Fragalysis export

>  <inchikey>  (292) 
ZVSAAAADXCPTQN-UHFFFAOYSA-N

>  <placement_batch>  (292) 
CpKRS_FrAncestor_bulkdock_iter1_cluster_best5

>  <alias>  (292) 
ZVSAAAADXCPTQN-UHFFFAOYSA-N-P12

>  <name>  (292) 
ZVSAAAADXCPTQN-UHFFFAOYSA-N-P12

>  <smiles>  (292) 
O=C(NC1C2C3CC4C1C4C32)c1ccn(C2CCCC2)n1

>  <subsites>  (292) 


>  <distance_score>  (292) 
0.685959

$$$$
BDKYYGLDQQMPPN-UHFFFAOYSA-N-P20
     RDKit          3D

 21 25  0  0  0  0  0  0  0  0999 V2000
    3.3661    9.8942   41.3716 C   0  0  0  0  0  0  0  0  0  0  0  0
    4.2503    9.3344   40.2394 C   0  0  0  0  0  0  0  0  0  0  0  0
    3.4380    9.4574   38.9320 C   0  0  0  0  0  0  0  0  0  0  0  0
    5.5149   10.1930   40.1266 C   0  0  0  0  0  0  0  0  0  0  0  0
    4.6258    7.8732   40.4867 C   0  0  0  0  0  0  0  0  0  0  0  0
    5.3595    7.1669   39.5238 C   0  0  0  0  0  0  0  0  0  0  0  0
    5.6001    5.8111   39.6941 C   0  0  0  0  0  0  0  0  0  0  0  0
    5.0996    5.1833   40.8177 C   0  0  0  0  0  0  0  0  0  0  0  0
    4.4001    5.9531   41.7452 C   0  0  0  0  0  0  0  0  0  0  0  0
    4.0380    5.3084   43.0435 C   0  0  0  0  0  0  0  0  0  0  0  0
    4.0268    4.1382   43.0793 O   0  0  0  0  0  0  0  0  0  0  0  0
    3.8311    6.3532   44.1767 N   0  0  0  0  0  0  0  0  0  0  0  0
    3.4711    6.1713   45.5778 C   0  0  1  0  0  0  0  0  0  0  0  0
    1.9665    6.2800   45.6996 C   0  0  2  0  0  0  0  0  0  0  0  0
    1.1894    5.4745   46.7485 C   0  0  2  0  0  0  0  0  0  0  0  0
    1.8445    4.4849   47.6950 C   0  0  0  0  0  0  0  0  0  0  0  0
    2.9940    3.8784   46.9488 C   0  0  2  0  0  0  0  0  0  0  0  0
    3.8102    4.7316   45.9789 C   0  0  1  0  0  0  0  0  0  0  0  0
    2.6344    3.9187   45.5153 C   0  0  2  0  0  0  0  0  0  0  0  0
    1.4468    4.9170   45.3751 C   0  0  2  0  0  0  0  0  0  0  0  0
    4.1896    7.2896   41.6328 N   0  0  0  0  0  0  0  0  0  0  0  0
  1  2  1  0
  2  3  1  0
  2  4  1  0
  2  5  1  0
  5  6  2  0
  6  7  1  0
  7  8  2  0
  8  9  1  0
  9 10  1  0
 10 11  2  0
 10 12  1  0
 13 12  1  6
 14 13  1  1
 14 15  1  0
 15 16  1  1
 17 16  1  1
 17 18  1  0
 18 19  1  0
 19 20  1  0
  9 21  2  0
 21  5  1  0
 18 13  1  1
 20 14  1  0
 20 15  1  1
 19 17  1  1
M  END
>  <inspiration_score>  (293) 
0.802

>  <HIPPO Pose ID>  (293) 
1574873

>  <ref_pdb>  (293) 
x0502a

>  <ref_mols>  (293) 
x0456a

>  <HIPPO Compound ID>  (293) 
87972

>  <energy_score>  (293) 
-388.244094

>  <tags>  (293) 
CpKRS_FrAncestor_bulkdock_iter1,CpKRS_FrAncestor_bulkdock_iter1_cluster_best5,fragmenstein_placed,CpKRS_FrAncestor_bulkdock_iter1_exported,BulkDock Fragalysis export

>  <inchikey>  (293) 
BDKYYGLDQQMPPN-UHFFFAOYSA-N

>  <placement_batch>  (293) 
CpKRS_FrAncestor_bulkdock_iter1_cluster_best5

>  <alias>  (293) 
BDKYYGLDQQMPPN-UHFFFAOYSA-N-P20

>  <name>  (293) 
BDKYYGLDQQMPPN-UHFFFAOYSA-N-P20

>  <smiles>  (293) 
CC(C)(C)c1cccc(C(=O)NC2C3C4CC5C2C5C43)n1

>  <subsites>  (293) 


>  <distance_score>  (293) 
0.814096

$$$$
FTKMYQXQSJRWFM-ZFWWWQNUSA-N-P25
     RDKit          3D

 21 24  0  0  0  0  0  0  0  0999 V2000
    2.9530    8.5680   38.7548 O   0  0  0  0  0  0  0  0  0  0  0  0
    2.6745    9.3380   39.6575 C   0  0  0  0  0  0  0  0  0  0  0  0
    2.4593    9.0035   40.9475 O   0  0  0  0  0  0  0  0  0  0  0  0
    3.5226    8.2498   41.5621 C   0  0  0  0  0  0  0  0  0  0  0  0
    3.1369    7.7152   42.9490 C   0  0  0  0  0  0  0  0  0  0  0  0
    3.8846    6.5455   42.6345 N   0  0  0  0  0  0  0  0  0  0  0  0
    3.8956    5.3189   43.3233 C   0  0  0  0  0  0  0  0  0  0  0  0
    4.3760    4.1562   42.7100 C   0  0  0  0  0  0  0  0  0  0  0  0
    4.5030    2.9680   43.4332 C   0  0  0  0  0  0  0  0  0  0  0  0
    4.1343    2.9214   44.7722 C   0  0  0  0  0  0  0  0  0  0  0  0
    3.6202    4.0544   45.3885 C   0  0  0  0  0  0  0  0  0  0  0  0
    3.5138    5.2485   44.6724 C   0  0  0  0  0  0  0  0  0  0  0  0
    3.7586    6.7662   41.2150 C   0  0  0  0  0  0  0  0  0  0  0  0
    2.6277   10.8135   39.5022 C   0  0  2  0  0  0  0  0  0  0  0  0
    1.4947   11.6114   40.1281 C   0  0  0  0  0  0  0  0  0  0  0  0
    0.9335   12.4546   38.9775 C   0  0  0  0  0  0  0  0  0  0  0  0
    2.1391   12.7326   38.0895 C   0  0  0  0  0  0  0  0  0  0  0  0
    2.7723   13.8544   38.5117 F   0  0  0  0  0  0  0  0  0  0  0  0
    1.7676   12.9252   36.8068 F   0  0  0  0  0  0  0  0  0  0  0  0
    3.0278   11.5431   38.2478 C   0  0  1  0  0  0  0  0  0  0  0  0
    3.9951   11.4688   39.3910 C   0  0  0  0  0  0  0  0  0  0  0  0
  1  2  2  0
  2  3  1  0
  3  4  1  0
  4  5  1  0
  5  6  1  0
  6  7  1  0
  7  8  2  0
  8  9  1  0
  9 10  2  0
 10 11  1  0
 11 12  2  0
  6 13  1  0
 14  2  1  6
 14 15  1  0
 15 16  1  0
 16 17  1  0
 17 18  1  0
 17 19  1  0
 17 20  1  0
 20 21  1  1
 13  4  1  0
 20 14  1  0
 12  7  1  0
 21 14  1  0
M  END
>  <inspiration_score>  (294) 
0.694

>  <HIPPO Pose ID>  (294) 
1590944

>  <ref_pdb>  (294) 
x0421a

>  <ref_mols>  (294) 
x0479a

>  <HIPPO Compound ID>  (294) 
97970

>  <energy_score>  (294) 
-31.506876

>  <tags>  (294) 
CpKRS_FrAncestor_bulkdock_iter1,CpKRS_FrAncestor_bulkdock_iter1_cluster_best5,fragmenstein_placed,CpKRS_FrAncestor_bulkdock_iter1_exported,BulkDock Fragalysis export

>  <inchikey>  (294) 
FTKMYQXQSJRWFM-UHFFFAOYSA-N

>  <placement_batch>  (294) 
CpKRS_FrAncestor_bulkdock_iter1_cluster_best5

>  <alias>  (294) 
FTKMYQXQSJRWFM-ZFWWWQNUSA-N-P25

>  <name>  (294) 
FTKMYQXQSJRWFM-ZFWWWQNUSA-N-P25

>  <smiles>  (294) 
O=C(OC1CN(c2ccccc2)C1)[C@]12CCC(F)(F)[C@H]1C2

>  <subsites>  (294) 


>  <distance_score>  (294) 
0.692442

$$$$
XVFQXHFILYYCAH-UHFFFAOYSA-N-P29
     RDKit          3D

 21 22  0  0  0  0  0  0  0  0999 V2000
    0.8764   10.9852   42.0572 C   0  0  0  0  0  0  0  0  0  0  0  0
    2.0406   10.2044   41.6709 N   0  0  0  0  0  0  0  0  0  0  0  0
    3.0107   10.7914   40.8820 C   0  0  0  0  0  0  0  0  0  0  0  0
    4.1052   10.1134   40.5190 C   0  0  0  0  0  0  0  0  0  0  0  0
    4.2878    8.7510   40.9546 C   0  0  0  0  0  0  0  0  0  0  0  0
    3.3709    8.1426   41.7278 C   0  0  0  0  0  0  0  0  0  0  0  0
    3.6011    6.7119   42.1089 C   0  0  0  0  0  0  0  0  0  0  0  0
    4.1029    5.9751   41.3490 O   0  0  0  0  0  0  0  0  0  0  0  0
    3.1132    6.4772   43.5706 N   0  0  0  0  0  0  0  0  0  0  0  0
    3.2267    5.3543   44.3961 C   0  0  0  0  0  0  0  0  0  0  0  0
    3.7883    4.1837   43.8701 C   0  0  0  0  0  0  0  0  0  0  0  0
    4.0350    3.0775   44.6816 C   0  0  0  0  0  0  0  0  0  0  0  0
    3.6829    3.1102   46.0238 C   0  0  0  0  0  0  0  0  0  0  0  0
    3.0622    4.2370   46.5452 C   0  0  0  0  0  0  0  0  0  0  0  0
    2.8338    5.3767   45.7451 C   0  0  0  0  0  0  0  0  0  0  0  0
    2.2753    6.5825   46.4498 C   0  0  0  0  0  0  0  0  0  0  0  0
    1.7384    7.5278   45.6466 F   0  0  0  0  0  0  0  0  0  0  0  0
    3.2356    7.2027   47.1887 F   0  0  0  0  0  0  0  0  0  0  0  0
    1.2892    6.2542   47.3329 F   0  0  0  0  0  0  0  0  0  0  0  0
    2.1429    8.8891   42.1102 C   0  0  0  0  0  0  0  0  0  0  0  0
    1.2900    8.3151   42.7767 O   0  0  0  0  0  0  0  0  0  0  0  0
  1  2  1  0
  2  3  1  0
  3  4  2  0
  4  5  1  0
  5  6  2  0
  6  7  1  0
  7  8  2  0
  7  9  1  0
  9 10  1  0
 10 11  2  0
 11 12  1  0
 12 13  2  0
 13 14  1  0
 14 15  2  0
 15 16  1  0
 16 17  1  0
 16 18  1  0
 16 19  1  0
  6 20  1  0
 20 21  2  0
 20  2  1  0
 15 10  1  0
M  END
>  <inspiration_score>  (295) 
0.761

>  <HIPPO Pose ID>  (295) 
1591012

>  <ref_pdb>  (295) 
x0421a

>  <ref_mols>  (295) 
x0485c

>  <HIPPO Compound ID>  (295) 
97990

>  <energy_score>  (295) 
-277.146492

>  <tags>  (295) 
CpKRS_FrAncestor_bulkdock_iter1,CpKRS_FrAncestor_bulkdock_iter1_cluster_best5,fragmenstein_placed,CpKRS_FrAncestor_bulkdock_iter1_exported,BulkDock Fragalysis export

>  <inchikey>  (295) 
XVFQXHFILYYCAH-UHFFFAOYSA-N

>  <placement_batch>  (295) 
CpKRS_FrAncestor_bulkdock_iter1_cluster_best5

>  <alias>  (295) 
XVFQXHFILYYCAH-UHFFFAOYSA-N-P29

>  <name>  (295) 
XVFQXHFILYYCAH-UHFFFAOYSA-N-P29

>  <smiles>  (295) 
Cn1cccc(C(=O)Nc2ccccc2C(F)(F)F)c1=O

>  <subsites>  (295) 


>  <distance_score>  (295) 
0.422136

$$$$
WWNIINRCRNXHKU-UHFFFAOYSA-N-P61
     RDKit          3D

 21 23  0  0  0  0  0  0  0  0999 V2000
    5.6273  -11.1855   22.2364 C   0  0  0  0  0  0  0  0  0  0  0  0
    4.3747  -10.9466   22.8862 N   0  0  0  0  0  0  0  0  0  0  0  0
    3.5783  -12.0653   23.0547 C   0  0  0  0  0  0  0  0  0  0  0  0
    2.8037  -12.3888   22.2498 O   0  0  0  0  0  0  0  0  0  0  0  0
    4.0040  -12.7546   24.3650 N   0  0  0  0  0  0  0  0  0  0  0  0
    3.6351  -14.0294   24.9092 C   0  0  0  0  0  0  0  0  0  0  0  0
    2.8118  -14.0045   26.1327 C   0  0  0  0  0  0  0  0  0  0  0  0
    3.1343  -14.6721   27.2938 C   0  0  0  0  0  0  0  0  0  0  0  0
    2.1331  -14.5652   28.1890 O   0  0  0  0  0  0  0  0  0  0  0  0
    1.1151  -13.8164   27.6443 N   0  0  0  0  0  0  0  0  0  0  0  0
    1.4835  -13.5282   26.3832 C   0  0  0  0  0  0  0  0  0  0  0  0
    0.5076  -12.7882   25.4731 C   0  0  0  0  0  0  0  0  0  0  0  0
    0.9148  -11.3087   25.3596 C   0  0  0  0  0  0  0  0  0  0  0  0
    0.3887  -13.4299   24.0848 C   0  0  0  0  0  0  0  0  0  0  0  0
   -0.9346  -12.8162   26.0000 C   0  0  0  0  0  0  0  0  0  0  0  0
    3.9796   -9.6109   23.3337 C   0  0  1  0  0  0  0  0  0  0  0  0
    4.3019   -9.3790   24.8189 C   0  0  0  0  0  0  0  0  0  0  0  0
    5.6838   -8.7953   24.8319 C   0  0  2  0  0  0  0  0  0  0  0  0
    5.9205   -7.3207   24.6746 C   0  0  0  0  0  0  0  0  0  0  0  0
    5.9457   -8.2209   23.4727 C   0  0  2  0  0  0  0  0  0  0  0  0
    4.7366   -8.4696   22.6202 C   0  0  0  0  0  0  0  0  0  0  0  0
  1  2  1  0
  2  3  1  0
  3  4  2  0
  3  5  1  0
  5  6  1  0
  6  7  1  0
  7  8  2  0
  8  9  1  0
  9 10  1  0
 10 11  2  0
 11 12  1  0
 12 13  1  0
 12 14  1  0
 12 15  1  0
 16  2  1  6
 16 17  1  0
 18 17  1  6
 18 19  1  0
 20 19  1  1
 20 21  1  0
 11  7  1  0
 21 16  1  0
 20 18  1  0
M  END
>  <inspiration_score>  (296) 
0.647

>  <HIPPO Pose ID>  (296) 
1600190

>  <ref_pdb>  (296) 
x0421a

>  <ref_mols>  (296) 
x0759b

>  <HIPPO Compound ID>  (296) 
100335

>  <energy_score>  (296) 
-72.851837

>  <tags>  (296) 
CpKRS_FrAncestor_bulkdock_iter1,CpKRS_FrAncestor_bulkdock_iter1_cluster_best5,fragmenstein_placed,CpKRS_FrAncestor_bulkdock_iter1_exported,BulkDock Fragalysis export

>  <inchikey>  (296) 
WWNIINRCRNXHKU-UHFFFAOYSA-N

>  <placement_batch>  (296) 
CpKRS_FrAncestor_bulkdock_iter1_cluster_best5

>  <alias>  (296) 
WWNIINRCRNXHKU-UHFFFAOYSA-N-P61

>  <name>  (296) 
WWNIINRCRNXHKU-UHFFFAOYSA-N-P61

>  <smiles>  (296) 
CN(C(=O)NCc1conc1C(C)(C)C)C1CC2CC2C1

>  <subsites>  (296) 


>  <distance_score>  (296) 
0.955668

$$$$
CRFXVUMIKOWIRC-HTQZYQBOSA-N-P11
     RDKit          3D

 15 17  0  0  0  0  0  0  0  0999 V2000
    5.2419   -8.5547   22.7929 C   0  0  0  0  0  0  0  0  0  0  0  0
    5.1606  -10.0003   23.1234 C   0  0  2  0  0  0  0  0  0  0  0  0
    4.9598  -10.9987   22.0169 C   0  0  0  0  0  0  0  0  0  0  0  0
    3.8606  -10.7562   23.0171 C   0  0  1  0  0  0  0  0  0  0  0  0
    3.5166  -11.7418   23.9701 N   0  0  0  0  0  0  0  0  0  0  0  0
    4.3841  -12.8134   24.6606 C   0  0  0  0  0  0  0  0  0  0  0  0
    5.5345  -13.0029   24.6105 O   0  0  0  0  0  0  0  0  0  0  0  0
    3.5126  -13.6021   25.5370 C   0  0  0  0  0  0  0  0  0  0  0  0
    3.9138  -14.6887   26.3050 C   0  0  0  0  0  0  0  0  0  0  0  0
    2.7924  -15.0643   26.9265 N   0  0  0  0  0  0  0  0  0  0  0  0
    1.7845  -14.2029   26.6236 C   0  0  0  0  0  0  0  0  0  0  0  0
    2.1538  -13.2973   25.7572 N   0  0  0  0  0  0  0  0  0  0  0  0
    0.5874  -14.4995   27.4218 C   0  0  0  0  0  0  0  0  0  0  0  0
    1.1887  -15.3890   28.5446 C   0  0  0  0  0  0  0  0  0  0  0  0
    2.4392  -16.0394   27.9307 C   0  0  0  0  0  0  0  0  0  0  0  0
  2  1  1  6
  2  3  1  0
  3  4  1  0
  4  5  1  1
  5  6  1  0
  6  7  2  0
  6  8  1  0
  8  9  2  0
  9 10  1  0
 10 11  1  0
 11 12  2  0
 11 13  1  0
 13 14  1  0
 14 15  1  0
  4  2  1  0
 12  8  1  0
 15 10  1  0
M  END
>  <inspiration_score>  (297) 
0.647

>  <HIPPO Pose ID>  (297) 
1613210

>  <ref_pdb>  (297) 
x0421a

>  <ref_mols>  (297) 
x0421a

>  <HIPPO Compound ID>  (297) 
82481

>  <energy_score>  (297) 
-283.604606

>  <tags>  (297) 
CpKRS_FrAncestor_bulkdock_iter1,CpKRS_FrAncestor_bulkdock_iter1_cluster_best5,fragmenstein_placed,CpKRS_FrAncestor_bulkdock_iter1_exported,BulkDock Fragalysis export

>  <inchikey>  (297) 
CRFXVUMIKOWIRC-UHFFFAOYSA-N

>  <placement_batch>  (297) 
CpKRS_FrAncestor_bulkdock_iter1_cluster_best5

>  <alias>  (297) 
CRFXVUMIKOWIRC-HTQZYQBOSA-N-P11

>  <name>  (297) 
CRFXVUMIKOWIRC-HTQZYQBOSA-N-P11

>  <smiles>  (297) 
C[C@@H]1C[C@H]1NC(=O)c1cn2c(n1)CCC2

>  <subsites>  (297) 


>  <distance_score>  (297) 
0.672787

$$$$
BEUQUKNNRRAITA-UHFFFAOYSA-N-P2
     RDKit          3D

 15 16  0  0  0  0  0  0  0  0999 V2000
    4.0698  -12.1804   24.3596 C   0  0  0  0  0  0  0  0  0  0  0  0
    3.1568  -12.9698   25.1905 N   0  0  0  0  0  0  0  0  0  0  0  0
    3.7162  -14.2890   25.5576 C   0  0  0  0  0  0  0  0  0  0  0  0
    3.1775  -14.8933   26.8326 C   0  0  0  0  0  0  0  0  0  0  0  0
    2.2524  -14.3736   27.6576 C   0  0  0  0  0  0  0  0  0  0  0  0
    1.7713  -15.0855   28.8751 C   0  0  0  0  0  0  0  0  0  0  0  0
    2.4706  -16.3028   29.1052 O   0  0  0  0  0  0  0  0  0  0  0  0
    2.7972  -16.9096   27.8575 C   0  0  0  0  0  0  0  0  0  0  0  0
    3.7186  -16.1450   27.0958 O   0  0  0  0  0  0  0  0  0  0  0  0
    1.8072  -12.7973   24.8438 C   0  0  0  0  0  0  0  0  0  0  0  0
    1.2590  -11.5045   24.7437 C   0  0  0  0  0  0  0  0  0  0  0  0
   -0.0856  -11.2876   24.4206 C   0  0  0  0  0  0  0  0  0  0  0  0
   -0.9294  -12.3680   24.1994 C   0  0  0  0  0  0  0  0  0  0  0  0
   -0.4284  -13.6582   24.3196 C   0  0  0  0  0  0  0  0  0  0  0  0
    0.9182  -13.8621   24.6474 C   0  0  0  0  0  0  0  0  0  0  0  0
  1  2  1  0
  2  3  1  0
  3  4  1  0
  4  5  2  0
  5  6  1  0
  6  7  1  0
  7  8  1  0
  8  9  1  0
  2 10  1  0
 10 11  2  0
 11 12  1  0
 12 13  2  0
 13 14  1  0
 14 15  2  0
  9  4  1  0
 15 10  1  0
M  END
>  <inspiration_score>  (298) 
0.385

>  <HIPPO Pose ID>  (298) 
1614621

>  <ref_pdb>  (298) 
x0421a

>  <ref_mols>  (298) 
x0501b

>  <HIPPO Compound ID>  (298) 
104475

>  <energy_score>  (298) 
-20.587778

>  <tags>  (298) 
CpKRS_FrAncestor_bulkdock_iter1,CpKRS_FrAncestor_bulkdock_iter1_cluster_best5,fragmenstein_placed,CpKRS_FrAncestor_bulkdock_iter1_exported,BulkDock Fragalysis export

>  <inchikey>  (298) 
BEUQUKNNRRAITA-UHFFFAOYSA-N

>  <placement_batch>  (298) 
CpKRS_FrAncestor_bulkdock_iter1_cluster_best5

>  <alias>  (298) 
BEUQUKNNRRAITA-UHFFFAOYSA-N-P2

>  <name>  (298) 
BEUQUKNNRRAITA-UHFFFAOYSA-N-P2

>  <smiles>  (298) 
CN(CC1=CCOCO1)c1ccccc1

>  <subsites>  (298) 


>  <distance_score>  (298) 
0.837173

$$$$
GXQPEORWPYSHLW-UHFFFAOYSA-N-P24
     RDKit          3D

 15 16  0  0  0  0  0  0  0  0999 V2000
    3.7587    8.0100   38.1715 C   0  0  0  0  0  0  0  0  0  0  0  0
    3.1196    8.3965   39.5162 C   0  0  2  0  0  0  0  0  0  0  0  0
    2.3569    9.7198   39.2939 C   0  0  0  0  0  0  0  0  0  0  0  0
    1.3862    9.5281   38.3535 F   0  0  0  0  0  0  0  0  0  0  0  0
    4.0897    8.5509   40.6207 N   0  0  0  0  0  0  0  0  0  0  0  0
    5.1519    7.5227   40.6786 C   0  0  0  0  0  0  0  0  0  0  0  0
    4.7035    6.1226   41.1493 C   0  0  0  0  0  0  0  0  0  0  0  0
    4.0167    6.1998   42.4591 N   0  0  0  0  0  0  0  0  0  0  0  0
    3.9136    5.0686   43.2355 C   0  0  0  0  0  0  0  0  0  0  0  0
    4.4041    3.8010   42.9581 C   0  0  0  0  0  0  0  0  0  0  0  0
    4.2560    2.8766   44.0313 C   0  0  0  0  0  0  0  0  0  0  0  0
    3.6351    3.4482   45.1140 C   0  0  0  0  0  0  0  0  0  0  0  0
    3.2042    5.0694   44.8154 S   0  0  0  0  0  0  0  0  0  0  0  0
    2.9417    7.2145   42.5004 C   0  0  0  0  0  0  0  0  0  0  0  0
    3.4320    8.5776   41.9529 C   0  0  0  0  0  0  0  0  0  0  0  0
  2  1  1  6
  2  3  1  0
  3  4  1  0
  2  5  1  0
  5  6  1  0
  6  7  1  0
  7  8  1  0
  8  9  1  0
  9 10  2  0
 10 11  1  0
 11 12  2  0
 12 13  1  0
  8 14  1  0
 14 15  1  0
 15  5  1  0
 13  9  1  0
M  END
>  <inspiration_score>  (299) 
0.564

>  <HIPPO Pose ID>  (299) 
1614712

>  <ref_pdb>  (299) 
x0421a

>  <ref_mols>  (299) 
x0479c

>  <HIPPO Compound ID>  (299) 
104502

>  <energy_score>  (299) 
-51.94146

>  <tags>  (299) 
CpKRS_FrAncestor_bulkdock_iter1,CpKRS_FrAncestor_bulkdock_iter1_cluster_best5,fragmenstein_placed,CpKRS_FrAncestor_bulkdock_iter1_exported,BulkDock Fragalysis export

>  <inchikey>  (299) 
GXQPEORWPYSHLW-UHFFFAOYSA-N

>  <placement_batch>  (299) 
CpKRS_FrAncestor_bulkdock_iter1_cluster_best5

>  <alias>  (299) 
GXQPEORWPYSHLW-UHFFFAOYSA-N-P24

>  <name>  (299) 
GXQPEORWPYSHLW-UHFFFAOYSA-N-P24

>  <smiles>  (299) 
CC(CF)N1CCN(c2cccs2)CC1

>  <subsites>  (299) 


>  <distance_score>  (299) 
0.49225

$$$$
C105442-P39
     RDKit          3D

 15 16  0  0  0  0  0  0  0  0999 V2000
    1.9432  -16.1973   26.1752 C   0  0  0  0  0  0  0  0  0  0  0  0
    3.0697  -15.9566   25.1656 C   0  0  0  0  0  0  0  0  0  0  0  0
    2.4127  -15.6717   23.8207 C   0  0  0  0  0  0  0  0  0  0  0  0
    3.9438  -17.1786   25.0693 C   0  0  0  0  0  0  0  0  0  0  0  0
    5.2259  -16.8912   25.3146 C   0  0  0  0  0  0  0  0  0  0  0  0
    5.3984  -15.4362   25.5695 C   0  0  0  0  0  0  0  0  0  0  0  0
    4.0370  -14.9403   25.6008 N   0  0  0  0  0  0  0  0  0  0  0  0
    3.7606  -13.5281   25.7030 C   0  0  0  0  0  0  0  0  0  0  0  0
    4.2489  -12.6248   24.5834 C   0  0  0  0  0  0  0  0  0  0  0  0
    4.5056  -13.0693   23.2869 C   0  0  0  0  0  0  0  0  0  0  0  0
    4.8653  -12.1526   22.3146 C   0  0  0  0  0  0  0  0  0  0  0  0
    5.0056  -10.8321   22.5400 N   0  0  0  0  0  0  0  0  0  0  0  0
    4.7863  -10.4043   23.7873 C   0  0  0  0  0  0  0  0  0  0  0  0
    4.9323   -9.0331   23.9780 N   0  0  0  0  0  0  0  0  0  0  0  0
    4.3879  -11.2468   24.8211 C   0  0  0  0  0  0  0  0  0  0  0  0
  1  2  1  0
  2  3  1  0
  2  4  1  0
  4  5  2  0
  5  6  1  0
  6  7  1  0
  7  8  1  0
  8  9  1  0
  9 10  2  0
 10 11  1  0
 11 12  2  0
 12 13  1  0
 13 14  1  0
 13 15  2  0
  7  2  1  0
 15  9  1  0
M  END
>  <inspiration_score>  (300) 
0.619

>  <HIPPO Pose ID>  (300) 
1618836

>  <ref_pdb>  (300) 
x0456a

>  <ref_mols>  (300) 
x0602a

>  <HIPPO Compound ID>  (300) 
105442

>  <energy_score>  (300) 
-71.50199

>  <tags>  (300) 
CpKRS_FrAncestor_bulkdock_iter1,CpKRS_FrAncestor_bulkdock_iter1_cluster_best5,fragmenstein_placed,CpKRS_FrAncestor_bulkdock_iter1_exported,BulkDock Fragalysis export

>  <inchikey>  (300) 
IPRPHEQLLQLWSS-UHFFFAOYSA-N

>  <placement_batch>  (300) 
CpKRS_FrAncestor_bulkdock_iter1_cluster_best5

>  <alias>  (300) 
C105442-P39

>  <name>  (300) 
C105442-P39

>  <smiles>  (300) 
CC1(C)C=CCN1Cc1ccnc(N)c1

>  <subsites>  (300) 


>  <distance_score>  (300) 
0.79703

$$$$
C107239-P1
     RDKit          3D

 22 25  0  0  0  0  0  0  0  0999 V2000
    5.3104  -15.7745   27.5272 O   0  0  0  0  0  0  0  0  0  0  0  0
    4.0959  -15.6873   27.6105 C   0  0  0  0  0  0  0  0  0  0  0  0
    3.2467  -16.3586   28.6556 C   0  0  0  0  0  0  0  0  0  0  0  0
    1.8694  -15.7443   28.4313 C   0  0  0  0  0  0  0  0  0  0  0  0
    1.8807  -15.4423   26.9495 C   0  0  0  0  0  0  0  0  0  0  0  0
    3.2353  -15.0051   26.7545 N   0  0  0  0  0  0  0  0  0  0  0  0
    3.7272  -14.4794   25.5009 C   0  0  0  0  0  0  0  0  0  0  0  0
    2.8179  -13.4128   24.8510 C   0  0  0  0  0  0  0  0  0  0  0  0
    3.4626  -12.6918   23.7411 N   0  0  0  0  0  0  0  0  0  0  0  0
    4.6815  -12.0341   24.1875 C   0  0  0  0  0  0  0  0  0  0  0  0
    5.1739  -11.0096   23.1925 C   0  0  0  0  0  0  0  0  0  0  0  0
    4.1873   -9.8448   23.0725 C   0  0  0  0  0  0  0  0  0  0  0  0
    4.5914   -9.0791   21.8165 C   0  0  0  0  0  0  0  0  0  0  0  0
    5.2848   -7.9610   22.0959 C   0  0  0  0  0  0  0  0  0  0  0  0
    5.3148   -7.7864   23.5379 C   0  0  0  0  0  0  0  0  0  0  0  0
    5.8881   -6.8172   24.3470 C   0  0  0  0  0  0  0  0  0  0  0  0
    5.5977   -6.7944   25.7110 C   0  0  0  0  0  0  0  0  0  0  0  0
    4.7270   -7.7331   26.2506 C   0  0  0  0  0  0  0  0  0  0  0  0
    4.1864   -8.7223   25.4328 C   0  0  0  0  0  0  0  0  0  0  0  0
    4.5329   -8.7860   24.1007 C   0  0  0  0  0  0  0  0  0  0  0  0
    2.7256  -10.3250   23.1941 C   0  0  0  0  0  0  0  0  0  0  0  0
    2.5721  -11.8361   22.9613 C   0  0  0  0  0  0  0  0  0  0  0  0
  1  2  2  0
  2  3  1  0
  3  4  1  0
  4  5  1  0
  5  6  1  0
  6  7  1  0
  7  8  1  0
  8  9  1  0
  9 10  1  0
 10 11  1  0
 11 12  1  0
 12 13  1  0
 13 14  2  0
 14 15  1  0
 15 16  2  0
 16 17  1  0
 17 18  2  0
 18 19  1  0
 19 20  2  0
 12 21  1  0
 21 22  1  0
  6  2  1  0
 22  9  1  0
 20 12  1  0
 20 15  1  0
M  END
>  <inspiration_score>  (301) 
0.384

>  <HIPPO Pose ID>  (301) 
1623522

>  <ref_pdb>  (301) 
x0456a

>  <ref_mols>  (301) 
x0501a

>  <HIPPO Compound ID>  (301) 
107239

>  <energy_score>  (301) 
-23.318214

>  <tags>  (301) 
CpKRS_FrAncestor_bulkdock_iter1,CpKRS_FrAncestor_bulkdock_iter1_cluster_best5,fragmenstein_placed,CpKRS_FrAncestor_bulkdock_iter1_exported,BulkDock Fragalysis export

>  <inchikey>  (301) 
LVMXGUMCVUKKMR-UHFFFAOYSA-N

>  <placement_batch>  (301) 
CpKRS_FrAncestor_bulkdock_iter1_cluster_best5

>  <alias>  (301) 
C107239-P1

>  <name>  (301) 
C107239-P1

>  <smiles>  (301) 
O=C1CCCN1CCN1CCC2(C=Cc3ccccc32)CC1

>  <subsites>  (301) 


>  <distance_score>  (301) 
0.819239

$$$$
QISUNNOUPWDQST-QWRGUYRKSA-N-P25
     RDKit          3D

 16 18  0  0  0  0  0  0  0  0999 V2000
    3.8680    5.0606   43.3231 C   0  0  0  0  0  0  0  0  0  0  0  0
    3.7252    5.8542   42.4337 C   0  0  0  0  0  0  0  0  0  0  0  0
    3.4833    6.7788   41.3501 C   0  0  0  0  0  0  0  0  0  0  0  0
    3.6595    8.2358   41.6880 C   0  0  0  0  0  0  0  0  0  0  0  0
    4.0660    8.5052   40.2139 N   0  0  0  0  0  0  0  0  0  0  0  0
    2.9054    9.0281   39.4085 C   0  0  0  0  0  0  0  0  0  0  0  0
    2.0913    8.4522   38.7841 O   0  0  0  0  0  0  0  0  0  0  0  0
    2.8044   10.5041   39.5678 C   0  0  1  0  0  0  0  0  0  0  0  0
    4.0086   11.3831   39.3665 C   0  0  0  0  0  0  0  0  0  0  0  0
    2.8966   11.4029   38.3542 C   0  0  2  0  0  0  0  0  0  0  0  0
    2.0015   12.6816   38.2599 C   0  0  0  0  0  0  0  0  0  0  0  0
    0.6989   12.7494   38.6959 C   0  0  0  0  0  0  0  0  0  0  0  0
    0.1333   14.0373   38.4587 C   0  0  0  0  0  0  0  0  0  0  0  0
    1.0253   14.8882   37.8419 C   0  0  0  0  0  0  0  0  0  0  0  0
    2.5312   14.1305   37.5452 S   0  0  0  0  0  0  0  0  0  0  0  0
    4.5999    7.0868   40.3841 C   0  0  0  0  0  0  0  0  0  0  0  0
  1  2  3  0
  2  3  1  0
  3  4  1  0
  4  5  1  0
  5  6  1  0
  6  7  2  0
  8  6  1  6
  8  9  1  0
  9 10  1  0
 10 11  1  1
 11 12  2  0
 12 13  1  0
 13 14  2  0
 14 15  1  0
  5 16  1  0
 16  3  1  0
 10  8  1  0
 15 11  1  0
M  END
>  <inspiration_score>  (302) 
0.449

>  <HIPPO Pose ID>  (302) 
1647130

>  <ref_pdb>  (302) 
x0421d

>  <ref_mols>  (302) 
x0479a

>  <HIPPO Compound ID>  (302) 
112304

>  <energy_score>  (302) 
-34.054793

>  <tags>  (302) 
CpKRS_FrAncestor_bulkdock_iter1,CpKRS_FrAncestor_bulkdock_iter1_cluster_best5,fragmenstein_placed,CpKRS_FrAncestor_bulkdock_iter1_exported,BulkDock Fragalysis export

>  <inchikey>  (302) 
QISUNNOUPWDQST-UHFFFAOYSA-N

>  <placement_batch>  (302) 
CpKRS_FrAncestor_bulkdock_iter1_cluster_best5

>  <alias>  (302) 
QISUNNOUPWDQST-QWRGUYRKSA-N-P25

>  <name>  (302) 
QISUNNOUPWDQST-QWRGUYRKSA-N-P25

>  <smiles>  (302) 
C#CC1CN(C(=O)[C@H]2C[C@@H]2c2cccs2)C1

>  <subsites>  (302) 


>  <distance_score>  (302) 
0.819822

$$$$
C496188-P21
     RDKit          3D

 16 17  0  0  0  0  0  0  0  0999 V2000
   29.5853    9.9066   29.9711 C   0  0  0  0  0  0  0  0  0  0  0  0
   28.5066    9.7307   28.9171 C   0  0  0  0  0  0  0  0  0  0  0  0
   29.1164    9.2101   27.6934 N   0  0  0  0  0  0  0  0  0  0  0  0
   28.2962    9.3670   26.2529 S   0  0  0  0  0  0  0  0  0  0  0  0
   29.0797    8.6906   25.2494 O   0  0  0  0  0  0  0  0  0  0  0  0
   27.8795   10.7407   26.1049 O   0  0  0  0  0  0  0  0  0  0  0  0
   26.9368    8.4567   26.5540 N   0  0  0  0  0  0  0  0  0  0  0  0
   27.1045    7.0138   26.8760 C   0  0  0  0  0  0  0  0  0  0  0  0
   25.8769    6.3555   26.3347 C   0  0  0  0  0  0  0  0  0  0  0  0
   25.4528    5.0510   26.5041 C   0  0  0  0  0  0  0  0  0  0  0  0
   24.2889    4.6525   25.8491 C   0  0  0  0  0  0  0  0  0  0  0  0
   23.5624    5.5563   25.0549 C   0  0  0  0  0  0  0  0  0  0  0  0
   23.9903    6.8737   24.9104 C   0  0  0  0  0  0  0  0  0  0  0  0
   23.0778    7.9787   23.9666 Cl  0  0  0  0  0  0  0  0  0  0  0  0
   25.1568    7.2570   25.5445 C   0  0  0  0  0  0  0  0  0  0  0  0
   25.8754    8.5635   25.4977 C   0  0  0  0  0  0  0  0  0  0  0  0
  1  2  1  0
  2  3  1  0
  3  4  1  0
  4  5  2  0
  4  6  2  0
  4  7  1  0
  7  8  1  0
  8  9  1  0
  9 10  2  0
 10 11  1  0
 11 12  2  0
 12 13  1  0
 13 14  1  0
 13 15  2  0
 15 16  1  0
 16  7  1  0
 15  9  1  0
M  END
>  <inspiration_score>  (303) 
0.347

>  <HIPPO Pose ID>  (303) 
1669985

>  <ref_pdb>  (303) 
x0485b

>  <ref_mols>  (303) 
x0472a

>  <HIPPO Compound ID>  (303) 
496188

>  <energy_score>  (303) 
-304.795871

>  <tags>  (303) 
CpKRS_FrAncestor_bulkdock_iter1,CpKRS_FrAncestor_bulkdock_iter1_cluster_best5,fragmenstein_placed,CpKRS_FrAncestor_bulkdock_iter1_exported,BulkDock Fragalysis export

>  <inchikey>  (303) 
FRWYIHWJDQRSPW-UHFFFAOYSA-N

>  <placement_batch>  (303) 
CpKRS_FrAncestor_bulkdock_iter1_cluster_best5

>  <alias>  (303) 
C496188-P21

>  <name>  (303) 
C496188-P21

>  <smiles>  (303) 
CCNS(=O)(=O)N1Cc2cccc(Cl)c2C1

>  <subsites>  (303) 


>  <distance_score>  (303) 
0.516234

$$$$
C497852-P44
     RDKit          3D

 16 17  0  0  0  0  0  0  0  0999 V2000
   -7.5915  -13.4609   49.8849 C   0  0  0  0  0  0  0  0  0  0  0  0
   -8.2365  -12.8312   48.7408 N   0  0  0  0  0  0  0  0  0  0  0  0
   -7.7210  -11.6381   48.2731 C   0  0  0  0  0  0  0  0  0  0  0  0
   -8.2565  -11.0236   47.2157 C   0  0  0  0  0  0  0  0  0  0  0  0
   -9.3870  -11.6092   46.5457 C   0  0  0  0  0  0  0  0  0  0  0  0
   -9.9367  -12.7717   46.9512 C   0  0  0  0  0  0  0  0  0  0  0  0
  -11.1483  -13.2450   46.1750 C   0  0  0  0  0  0  0  0  0  0  0  0
  -11.7336  -12.4879   45.5054 O   0  0  0  0  0  0  0  0  0  0  0  0
  -11.3983  -14.7450   46.4429 N   0  0  0  0  0  0  0  0  0  0  0  0
  -12.4742  -15.6048   46.0194 C   0  0  0  0  0  0  0  0  0  0  0  0
  -12.4746  -15.6708   44.4963 C   0  0  0  0  0  0  0  0  0  0  0  0
  -11.4296  -16.5935   43.8190 C   0  0  0  0  0  0  0  0  0  0  0  0
  -12.4960  -17.6995   43.7714 C   0  0  0  0  0  0  0  0  0  0  0  0
  -13.5623  -16.5996   43.8879 C   0  0  0  0  0  0  0  0  0  0  0  0
   -9.3447  -13.4525   48.1525 C   0  0  0  0  0  0  0  0  0  0  0  0
   -9.8398  -14.4940   48.5856 O   0  0  0  0  0  0  0  0  0  0  0  0
  1  2  1  0
  2  3  1  0
  3  4  2  0
  4  5  1  0
  5  6  2  0
  6  7  1  0
  7  8  2  0
  7  9  1  0
  9 10  1  0
 10 11  1  0
 11 12  1  0
 12 13  1  0
 13 14  1  0
  6 15  1  0
 15 16  2  0
 15  2  1  0
 14 11  1  0
M  END
>  <inspiration_score>  (304) 
0.794

>  <HIPPO Pose ID>  (304) 
1675447

>  <ref_pdb>  (304) 
x0485b

>  <ref_mols>  (304) 
x0502b

>  <HIPPO Compound ID>  (304) 
497852

>  <energy_score>  (304) 
-244.632244

>  <tags>  (304) 
CpKRS_FrAncestor_bulkdock_iter1,CpKRS_FrAncestor_bulkdock_iter1_cluster_best5,fragmenstein_placed,CpKRS_FrAncestor_bulkdock_iter1_exported,BulkDock Fragalysis export

>  <inchikey>  (304) 
NKJWMPCFELTCJM-UHFFFAOYSA-N

>  <placement_batch>  (304) 
CpKRS_FrAncestor_bulkdock_iter1_cluster_best5

>  <alias>  (304) 
C497852-P44

>  <name>  (304) 
C497852-P44

>  <smiles>  (304) 
Cn1cccc(C(=O)NCC2CCC2)c1=O

>  <subsites>  (304) 


>  <distance_score>  (304) 
0.591859

$$$$
C502538-P25
     RDKit          3D

 16 18  0  0  0  0  0  0  0  0999 V2000
    2.0369   12.4153   38.2502 C   0  0  0  0  0  0  0  0  0  0  0  0
    2.8153   11.6406   38.9702 C   0  0  0  0  0  0  0  0  0  0  0  0
    4.1406   11.2429   39.2149 C   0  0  0  0  0  0  0  0  0  0  0  0
    2.9099   10.7112   40.0257 C   0  0  2  0  0  0  0  0  0  0  0  0
    2.5878    9.2551   39.9094 C   0  0  0  0  0  0  0  0  0  0  0  0
    3.6411    8.5004   40.5883 N   0  0  0  0  0  0  0  0  0  0  0  0
    3.5883    8.5679   42.0555 C   0  0  0  0  0  0  0  0  0  0  0  0
    3.0858    7.2942   42.7639 C   0  0  0  0  0  0  0  0  0  0  0  0
    3.8688    6.1135   42.3798 N   0  0  0  0  0  0  0  0  0  0  0  0
    3.9397    4.9875   43.1609 C   0  0  0  0  0  0  0  0  0  0  0  0
    4.5252    3.7727   42.8379 C   0  0  0  0  0  0  0  0  0  0  0  0
    4.4586    2.7982   43.8760 C   0  0  0  0  0  0  0  0  0  0  0  0
    3.8393    3.2909   44.9964 C   0  0  0  0  0  0  0  0  0  0  0  0
    3.3177    4.8958   44.7739 S   0  0  0  0  0  0  0  0  0  0  0  0
    4.4981    6.1606   41.0398 C   0  0  0  0  0  0  0  0  0  0  0  0
    3.7271    7.1134   40.0994 C   0  0  0  0  0  0  0  0  0  0  0  0
  1  2  2  0
  2  3  1  0
  3  4  1  0
  4  5  1  6
  5  6  1  0
  6  7  1  0
  7  8  1  0
  8  9  1  0
  9 10  1  0
 10 11  2  0
 11 12  1  0
 12 13  2  0
 13 14  1  0
  9 15  1  0
 15 16  1  0
  4  2  1  0
 16  6  1  0
 14 10  1  0
M  END
>  <inspiration_score>  (305) 
0.562

>  <HIPPO Pose ID>  (305) 
1688104

>  <ref_pdb>  (305) 
x0421d

>  <ref_mols>  (305) 
x0479a

>  <HIPPO Compound ID>  (305) 
502538

>  <energy_score>  (305) 
-41.551074

>  <tags>  (305) 
CpKRS_FrAncestor_bulkdock_iter1,CpKRS_FrAncestor_bulkdock_iter1_cluster_best5,fragmenstein_placed,CpKRS_FrAncestor_bulkdock_iter1_exported,BulkDock Fragalysis export

>  <inchikey>  (305) 
APWPVBLMPGVEDL-UHFFFAOYSA-N

>  <placement_batch>  (305) 
CpKRS_FrAncestor_bulkdock_iter1_cluster_best5

>  <alias>  (305) 
C502538-P25

>  <name>  (305) 
C502538-P25

>  <smiles>  (305) 
C=C1C[C@@H]1CN1CCN(c2cccs2)CC1

>  <subsites>  (305) 


>  <distance_score>  (305) 
0.480485

$$$$
C503713-P48
     RDKit          3D

 16 17  0  0  0  0  0  0  0  0999 V2000
    5.7024   -9.0406   23.7712 C   0  0  0  0  0  0  0  0  0  0  0  0
    4.6313   -9.4582   22.8752 N   0  0  0  0  0  0  0  0  0  0  0  0
    3.3074   -9.1535   23.3876 C   0  0  0  0  0  0  0  0  0  0  0  0
    2.3796  -10.3050   23.7173 C   0  0  0  0  0  0  0  0  0  0  0  0
    3.0206  -11.2465   24.7200 C   0  0  0  0  0  0  0  0  0  0  0  0
    3.5643  -12.4069   24.0132 N   0  0  0  0  0  0  0  0  0  0  0  0
    3.8844  -13.5333   24.9347 C   0  0  0  0  0  0  0  0  0  0  0  0
    2.7912  -14.0741   25.8246 C   0  0  0  0  0  0  0  0  0  0  0  0
    1.4689  -13.8268   25.7445 C   0  0  0  0  0  0  0  0  0  0  0  0
    0.5683  -14.1671   26.8184 C   0  0  0  0  0  0  0  0  0  0  0  0
    1.0434  -14.7706   27.9112 C   0  0  0  0  0  0  0  0  0  0  0  0
    2.3541  -15.1578   27.9676 N   0  0  0  0  0  0  0  0  0  0  0  0
    3.2709  -14.9223   26.9687 C   0  0  0  0  0  0  0  0  0  0  0  0
    4.4073  -15.3847   27.0173 O   0  0  0  0  0  0  0  0  0  0  0  0
    4.8139  -12.0249   23.3103 C   0  0  0  0  0  0  0  0  0  0  0  0
    4.7930  -10.8179   22.3342 C   0  0  0  0  0  0  0  0  0  0  0  0
  1  2  1  0
  2  3  1  0
  3  4  1  0
  4  5  1  0
  5  6  1  0
  6  7  1  0
  7  8  1  0
  8  9  2  0
  9 10  1  0
 10 11  2  0
 11 12  1  0
 12 13  1  0
 13 14  2  0
  6 15  1  0
 15 16  1  0
 16  2  1  0
 13  8  1  0
M  END
>  <inspiration_score>  (306) 
0.476

>  <HIPPO Pose ID>  (306) 
1691949

>  <ref_pdb>  (306) 
x0421d

>  <ref_mols>  (306) 
x0504a

>  <HIPPO Compound ID>  (306) 
503713

>  <energy_score>  (306) 
-170.706333

>  <tags>  (306) 
CpKRS_FrAncestor_bulkdock_iter1,CpKRS_FrAncestor_bulkdock_iter1_cluster_best5,fragmenstein_placed,CpKRS_FrAncestor_bulkdock_iter1_exported,BulkDock Fragalysis export

>  <inchikey>  (306) 
DEPXNMVUZGHSSV-UHFFFAOYSA-N

>  <placement_batch>  (306) 
CpKRS_FrAncestor_bulkdock_iter1_cluster_best5

>  <alias>  (306) 
C503713-P48

>  <name>  (306) 
C503713-P48

>  <smiles>  (306) 
CN1CCCN(Cc2ccc[nH]c2=O)CC1

>  <subsites>  (306) 


>  <distance_score>  (306) 
0.791054

$$$$
C503778-P48
     RDKit          3D

 16 17  0  0  0  0  0  0  0  0999 V2000
    5.3073  -10.1680   20.9982 C   0  0  0  0  0  0  0  0  0  0  0  0
    4.8944  -10.2514   22.4358 C   0  0  2  0  0  0  0  0  0  0  0  0
    3.8771  -11.3894   22.6569 C   0  0  0  0  0  0  0  0  0  0  0  0
    3.3495  -11.5838   24.0022 N   0  0  0  0  0  0  0  0  0  0  0  0
    3.8655  -12.7668   24.7243 C   0  0  0  0  0  0  0  0  0  0  0  0
    2.8991  -13.4209   25.6946 C   0  0  0  0  0  0  0  0  0  0  0  0
    1.6053  -13.0864   25.8753 C   0  0  0  0  0  0  0  0  0  0  0  0
    0.7859  -13.6879   26.8973 C   0  0  0  0  0  0  0  0  0  0  0  0
    1.3016  -14.6321   27.6868 C   0  0  0  0  0  0  0  0  0  0  0  0
    2.5846  -15.0630   27.4882 N   0  0  0  0  0  0  0  0  0  0  0  0
    3.4366  -14.5530   26.5313 C   0  0  0  0  0  0  0  0  0  0  0  0
    4.5604  -15.0236   26.3764 O   0  0  0  0  0  0  0  0  0  0  0  0
    3.1726  -10.3515   24.7687 C   0  0  0  0  0  0  0  0  0  0  0  0
    4.4098   -9.4829   25.0442 C   0  0  0  0  0  0  0  0  0  0  0  0
    4.7447   -8.4854   23.9646 C   0  0  0  0  0  0  0  0  0  0  0  0
    4.3268   -8.9626   22.7049 O   0  0  0  0  0  0  0  0  0  0  0  0
  2  1  1  6
  2  3  1  0
  3  4  1  0
  4  5  1  0
  5  6  1  0
  6  7  2  0
  7  8  1  0
  8  9  2  0
  9 10  1  0
 10 11  1  0
 11 12  2  0
  4 13  1  0
 13 14  1  0
 14 15  1  0
 15 16  1  0
 16  2  1  0
 11  6  1  0
M  END
>  <inspiration_score>  (307) 
0.492

>  <HIPPO Pose ID>  (307) 
1692107

>  <ref_pdb>  (307) 
x0421d

>  <ref_mols>  (307) 
x0504a

>  <HIPPO Compound ID>  (307) 
503778

>  <energy_score>  (307) 
-152.141673

>  <tags>  (307) 
CpKRS_FrAncestor_bulkdock_iter1,CpKRS_FrAncestor_bulkdock_iter1_cluster_best5,fragmenstein_placed,CpKRS_FrAncestor_bulkdock_iter1_exported,BulkDock Fragalysis export

>  <inchikey>  (307) 
IZSIVPOBNYSIIY-UHFFFAOYSA-N

>  <placement_batch>  (307) 
CpKRS_FrAncestor_bulkdock_iter1_cluster_best5

>  <alias>  (307) 
C503778-P48

>  <name>  (307) 
C503778-P48

>  <smiles>  (307) 
C[C@@H]1CN(Cc2ccc[nH]c2=O)CCCO1

>  <subsites>  (307) 


>  <distance_score>  (307) 
0.798313

$$$$
C503812-P24
     RDKit          3D

 16 18  0  0  0  0  0  0  0  0999 V2000
   -0.5525    9.9334   38.8679 Cl  0  0  0  0  0  0  0  0  0  0  0  0
    1.1092    9.4917   38.5624 C   0  0  1  0  0  0  0  0  0  0  0  0
    2.2207   10.4586   38.8653 C   0  0  0  0  0  0  0  0  0  0  0  0
    2.0021    9.2471   39.7336 C   0  0  2  0  0  0  0  0  0  0  0  0
    2.9320    8.0743   39.7001 C   0  0  0  0  0  0  0  0  0  0  0  0
    4.1296    8.3232   40.4971 N   0  0  0  0  0  0  0  0  0  0  0  0
    3.8381    8.6585   41.9023 C   0  0  0  0  0  0  0  0  0  0  0  0
    3.1780    7.5244   42.7101 C   0  0  0  0  0  0  0  0  0  0  0  0
    4.0111    6.3050   42.6968 N   0  0  0  0  0  0  0  0  0  0  0  0
    3.7677    5.3333   43.6448 C   0  0  0  0  0  0  0  0  0  0  0  0
    3.2120    5.5130   44.9053 C   0  0  0  0  0  0  0  0  0  0  0  0
    3.2412    4.3492   45.7253 C   0  0  0  0  0  0  0  0  0  0  0  0
    3.8200    3.2922   45.0725 C   0  0  0  0  0  0  0  0  0  0  0  0
    4.1866    3.6629   43.4507 S   0  0  0  0  0  0  0  0  0  0  0  0
    4.5072    5.9179   41.3503 C   0  0  0  0  0  0  0  0  0  0  0  0
    5.0041    7.1245   40.5086 C   0  0  0  0  0  0  0  0  0  0  0  0
  2  1  1  1
  2  3  1  0
  3  4  1  0
  4  5  1  6
  5  6  1  0
  6  7  1  0
  7  8  1  0
  8  9  1  0
  9 10  1  0
 10 11  2  0
 11 12  1  0
 12 13  2  0
 13 14  1  0
  9 15  1  0
 15 16  1  0
  4  2  1  0
 16  6  1  0
 14 10  1  0
M  END
>  <inspiration_score>  (308) 
0.542

>  <HIPPO Pose ID>  (308) 
1692234

>  <ref_pdb>  (308) 
x0421d

>  <ref_mols>  (308) 
x0479c

>  <HIPPO Compound ID>  (308) 
503812

>  <energy_score>  (308) 
-42.317407

>  <tags>  (308) 
CpKRS_FrAncestor_bulkdock_iter1,CpKRS_FrAncestor_bulkdock_iter1_cluster_best5,fragmenstein_placed,CpKRS_FrAncestor_bulkdock_iter1_exported,BulkDock Fragalysis export

>  <inchikey>  (308) 
RQAXJUDBIFIYCX-UHFFFAOYSA-N

>  <placement_batch>  (308) 
CpKRS_FrAncestor_bulkdock_iter1_cluster_best5

>  <alias>  (308) 
C503812-P24

>  <name>  (308) 
C503812-P24

>  <smiles>  (308) 
Cl[C@H]1C[C@@H]1CN1CCN(c2cccs2)CC1

>  <subsites>  (308) 


>  <distance_score>  (308) 
0.535954

$$$$
C507716-P62
     RDKit          3D

 17 18  0  0  0  0  0  0  0  0999 V2000
    1.6696  -15.2607   27.5788 C   0  0  0  0  0  0  0  0  0  0  0  0
    3.1123  -15.2789   27.2609 C   0  0  0  0  0  0  0  0  0  0  0  0
    3.9566  -16.0452   28.0420 N   0  0  0  0  0  0  0  0  0  0  0  0
    5.1839  -15.8743   27.6140 C   0  0  0  0  0  0  0  0  0  0  0  0
    5.4029  -14.8473   26.2688 S   0  0  0  0  0  0  0  0  0  0  0  0
    3.7168  -14.5670   26.2371 C   0  0  0  0  0  0  0  0  0  0  0  0
    3.0435  -13.6919   25.2481 C   0  0  0  0  0  0  0  0  0  0  0  0
    3.9288  -12.6962   24.7393 N   0  0  0  0  0  0  0  0  0  0  0  0
    3.9136  -11.1882   24.9005 C   0  0  0  0  0  0  0  0  0  0  0  0
    3.2259  -10.5083   25.5346 O   0  0  0  0  0  0  0  0  0  0  0  0
    4.9505  -10.5742   24.0398 C   0  0  0  0  0  0  0  0  0  0  0  0
    5.5488   -9.4876   24.5641 C   0  0  0  0  0  0  0  0  0  0  0  0
    6.2062   -8.4553   23.7121 C   0  0  0  0  0  0  0  0  0  0  0  0
    5.6427   -8.4981   22.2901 C   0  0  2  0  0  0  0  0  0  0  0  0
    4.2540   -7.9289   22.2558 C   0  0  0  0  0  0  0  0  0  0  0  0
    5.6394   -9.9001   21.7159 C   0  0  0  0  0  0  0  0  0  0  0  0
    4.9420  -10.9312   22.5880 C   0  0  0  0  0  0  0  0  0  0  0  0
  1  2  1  0
  2  3  1  0
  3  4  2  0
  4  5  1  0
  5  6  1  0
  6  7  1  0
  7  8  1  0
  8  9  1  0
  9 10  2  0
  9 11  1  0
 11 12  2  0
 12 13  1  0
 13 14  1  0
 14 15  1  1
 14 16  1  0
 16 17  1  0
  6  2  2  0
 17 11  1  0
M  END
>  <inspiration_score>  (309) 
0.396

>  <HIPPO Pose ID>  (309) 
1701965

>  <ref_pdb>  (309) 
x0787b

>  <ref_mols>  (309) 
x0759a

>  <HIPPO Compound ID>  (309) 
507716

>  <energy_score>  (309) 
-72.521596

>  <tags>  (309) 
CpKRS_FrAncestor_bulkdock_iter1,CpKRS_FrAncestor_bulkdock_iter1_cluster_best5,fragmenstein_placed,CpKRS_FrAncestor_bulkdock_iter1_exported,BulkDock Fragalysis export

>  <inchikey>  (309) 
JJDDJXWMJVBYGO-UHFFFAOYSA-N

>  <placement_batch>  (309) 
CpKRS_FrAncestor_bulkdock_iter1_cluster_best5

>  <alias>  (309) 
C507716-P62

>  <name>  (309) 
C507716-P62

>  <smiles>  (309) 
Cc1ncsc1CNC(=O)C1=CC[C@H](C)CC1

>  <subsites>  (309) 


>  <distance_score>  (309) 
0.831224

$$$$
C507780-P62
     RDKit          3D

 17 19  0  0  0  0  0  0  0  0999 V2000
    0.9501  -13.6914   25.8331 C   0  0  0  0  0  0  0  0  0  0  0  0
    1.7578  -14.4451   26.8036 C   0  0  0  0  0  0  0  0  0  0  0  0
    1.1005  -14.8238   27.9287 O   0  0  0  0  0  0  0  0  0  0  0  0
    1.9801  -15.5186   28.6796 C   0  0  0  0  0  0  0  0  0  0  0  0
    3.1903  -15.6224   28.0406 C   0  0  0  0  0  0  0  0  0  0  0  0
    3.0843  -14.8420   26.8502 C   0  0  0  0  0  0  0  0  0  0  0  0
    4.1858  -14.5781   25.8906 C   0  0  0  0  0  0  0  0  0  0  0  0
    4.0708  -13.2839   25.2771 N   0  0  0  0  0  0  0  0  0  0  0  0
    4.5997  -12.7688   23.9389 C   0  0  0  0  0  0  0  0  0  0  0  0
    5.1478  -13.3266   23.0810 O   0  0  0  0  0  0  0  0  0  0  0  0
    4.2792  -11.2904   23.7486 C   0  0  2  0  0  0  0  0  0  0  0  0
    2.8217  -10.9282   23.8283 C   0  0  0  0  0  0  0  0  0  0  0  0
    5.2145  -10.5441   22.7740 C   0  0  1  0  0  0  0  0  0  0  0  0
    4.9742   -9.2337   22.1208 C   0  0  0  0  0  0  0  0  0  0  0  0
    4.4731   -8.3540   23.1428 O   0  0  0  0  0  0  0  0  0  0  0  0
    5.0320   -8.8153   24.3933 C   0  0  0  0  0  0  0  0  0  0  0  0
    5.3100  -10.2729   24.2254 C   0  0  1  0  0  0  0  0  0  0  0  0
  1  2  1  0
  2  3  1  0
  3  4  1  0
  4  5  2  0
  5  6  1  0
  6  7  1  0
  7  8  1  0
  8  9  1  0
  9 10  2  0
  9 11  1  0
 11 12  1  6
 11 13  1  0
 13 14  1  6
 14 15  1  0
 15 16  1  0
 17 16  1  6
  6  2  2  0
 17 11  1  0
 17 13  1  0
M  END
>  <inspiration_score>  (310) 
0.468

>  <HIPPO Pose ID>  (310) 
1702095

>  <ref_pdb>  (310) 
x0787b

>  <ref_mols>  (310) 
x0759a

>  <HIPPO Compound ID>  (310) 
507780

>  <energy_score>  (310) 
-76.762584

>  <tags>  (310) 
CpKRS_FrAncestor_bulkdock_iter1,CpKRS_FrAncestor_bulkdock_iter1_cluster_best5,fragmenstein_placed,CpKRS_FrAncestor_bulkdock_iter1_exported,BulkDock Fragalysis export

>  <inchikey>  (310) 
HGVOCXFUMVXHGO-UHFFFAOYSA-N

>  <placement_batch>  (310) 
CpKRS_FrAncestor_bulkdock_iter1_cluster_best5

>  <alias>  (310) 
C507780-P62

>  <name>  (310) 
C507780-P62

>  <smiles>  (310) 
Cc1occc1CNC(=O)[C@@]1(C)[C@@H]2COC[C@@H]21

>  <subsites>  (310) 


>  <distance_score>  (310) 
0.911808

$$$$
HULWNCGSTGBBNK-UHFFFAOYSA-N-P46
     RDKit          3D

 17 19  0  0  0  0  0  0  0  0999 V2000
    1.5044  -14.9798   28.9838 C   0  0  0  0  0  0  0  0  0  0  0  0
    2.4121  -14.8237   27.8218 C   0  0  0  0  0  0  0  0  0  0  0  0
    3.5442  -15.4793   27.7217 N   0  0  0  0  0  0  0  0  0  0  0  0
    4.2406  -15.0142   26.6243 C   0  0  0  0  0  0  0  0  0  0  0  0
    3.6408  -13.9992   25.9032 C   0  0  0  0  0  0  0  0  0  0  0  0
    4.2432  -13.2291   24.8111 C   0  0  0  0  0  0  0  0  0  0  0  0
    5.3777  -13.3624   24.5750 O   0  0  0  0  0  0  0  0  0  0  0  0
    3.1949  -12.2861   24.1825 N   0  0  0  0  0  0  0  0  0  0  0  0
    3.3454  -11.2325   23.1876 C   0  0  2  0  0  0  0  0  0  0  0  0
    4.7696  -11.1150   22.6134 C   0  0  0  0  0  0  0  0  0  0  0  0
    5.0535   -9.8200   21.8510 C   0  0  0  0  0  0  0  0  0  0  0  0
    5.3103   -8.5871   22.6695 C   0  0  2  0  0  0  0  0  0  0  0  0
    6.2048   -8.6187   23.8855 C   0  0  0  0  0  0  0  0  0  0  0  0
    4.7322   -8.3435   24.0433 C   0  0  2  0  0  0  0  0  0  0  0  0
    3.8327   -9.3052   24.7267 C   0  0  0  0  0  0  0  0  0  0  0  0
    2.8105   -9.9303   23.7934 C   0  0  0  0  0  0  0  0  0  0  0  0
    2.0705  -13.7200   26.5479 S   0  0  0  0  0  0  0  0  0  0  0  0
  1  2  1  0
  2  3  2  0
  3  4  1  0
  4  5  2  0
  5  6  1  0
  6  7  2  0
  6  8  1  0
  9  8  1  1
  9 10  1  0
 10 11  1  0
 12 11  1  1
 12 13  1  0
 14 13  1  1
 14 15  1  0
 15 16  1  0
  5 17  1  0
 17  2  1  0
 16  9  1  0
 14 12  1  0
M  END
>  <inspiration_score>  (311) 
0.717

>  <HIPPO Pose ID>  (311) 
1711858

>  <ref_pdb>  (311) 
x0421b

>  <ref_mols>  (311) 
x0502c

>  <HIPPO Compound ID>  (311) 
510901

>  <energy_score>  (311) 
-194.708964

>  <tags>  (311) 
CpKRS_FrAncestor_bulkdock_iter1,CpKRS_FrAncestor_bulkdock_iter1_cluster_best5,fragmenstein_placed,CpKRS_FrAncestor_bulkdock_iter1_exported,BulkDock Fragalysis export

>  <inchikey>  (311) 
HULWNCGSTGBBNK-UHFFFAOYSA-N

>  <placement_batch>  (311) 
CpKRS_FrAncestor_bulkdock_iter1_cluster_best5

>  <alias>  (311) 
HULWNCGSTGBBNK-UHFFFAOYSA-N-P46

>  <name>  (311) 
HULWNCGSTGBBNK-UHFFFAOYSA-N-P46

>  <smiles>  (311) 
Cc1ncc(C(=O)NC2CCC3CC3CC2)s1

>  <subsites>  (311) 


>  <distance_score>  (311) 
0.802958

$$$$
OCVAXENLQMUYFO-UHFFFAOYSA-N-P45
     RDKit          3D

 17 19  0  0  0  0  0  0  0  0999 V2000
    4.2422  -15.8244   27.4308 C   0  0  0  0  0  0  0  0  0  0  0  0
    3.1837  -14.8578   27.0367 C   0  0  0  0  0  0  0  0  0  0  0  0
    1.8957  -14.7918   27.6522 C   0  0  0  0  0  0  0  0  0  0  0  0
    1.0263  -13.8977   27.1888 N   0  0  0  0  0  0  0  0  0  0  0  0
    1.7661  -13.0821   25.9530 S   0  0  0  0  0  0  0  0  0  0  0  0
    3.2750  -13.8900   26.0409 C   0  0  0  0  0  0  0  0  0  0  0  0
    4.4349  -13.5323   25.2043 C   0  0  0  0  0  0  0  0  0  0  0  0
    5.4526  -14.0696   25.3891 O   0  0  0  0  0  0  0  0  0  0  0  0
    4.0704  -12.3900   24.2362 N   0  0  0  0  0  0  0  0  0  0  0  0
    4.9043  -11.6024   23.3577 C   0  0  2  0  0  0  0  0  0  0  0  0
    5.6821  -10.5622   24.1420 C   0  0  0  0  0  0  0  0  0  0  0  0
    4.8236   -9.4524   24.7106 C   0  0  0  0  0  0  0  0  0  0  0  0
    4.4320   -8.4039   23.7322 C   0  0  1  0  0  0  0  0  0  0  0  0
    5.4731   -7.6813   22.9263 C   0  0  0  0  0  0  0  0  0  0  0  0
    4.4486   -8.5381   22.2295 C   0  0  1  0  0  0  0  0  0  0  0  0
    4.8006   -9.8189   21.5463 C   0  0  0  0  0  0  0  0  0  0  0  0
    4.1090  -11.0108   22.2157 C   0  0  0  0  0  0  0  0  0  0  0  0
  1  2  1  0
  2  3  1  0
  3  4  2  0
  4  5  1  0
  5  6  1  0
  6  7  1  0
  7  8  2  0
  7  9  1  0
 10  9  1  1
 10 11  1  0
 11 12  1  0
 13 12  1  1
 13 14  1  0
 15 14  1  6
 15 16  1  0
 16 17  1  0
  6  2  2  0
 17 10  1  0
 15 13  1  0
M  END
>  <inspiration_score>  (312) 
0.788

>  <HIPPO Pose ID>  (312) 
1711898

>  <ref_pdb>  (312) 
x0421b

>  <ref_mols>  (312) 
x0502a

>  <HIPPO Compound ID>  (312) 
510915

>  <energy_score>  (312) 
-168.027791

>  <tags>  (312) 
CpKRS_FrAncestor_bulkdock_iter1,CpKRS_FrAncestor_bulkdock_iter1_cluster_best5,fragmenstein_placed,CpKRS_FrAncestor_bulkdock_iter1_exported,BulkDock Fragalysis export

>  <inchikey>  (312) 
OCVAXENLQMUYFO-UHFFFAOYSA-N

>  <placement_batch>  (312) 
CpKRS_FrAncestor_bulkdock_iter1_cluster_best5

>  <alias>  (312) 
OCVAXENLQMUYFO-UHFFFAOYSA-N-P45

>  <name>  (312) 
OCVAXENLQMUYFO-UHFFFAOYSA-N-P45

>  <smiles>  (312) 
Cc1cnsc1C(=O)NC1CCC2CC2CC1

>  <subsites>  (312) 


>  <distance_score>  (312) 
0.653683

$$$$
HZJWUHQQAFRKRW-UHFFFAOYSA-N-P35
     RDKit          3D

 14 15  0  0  0  0  0  0  0  0999 V2000
    5.2034  -13.7553   24.1810 O   0  0  0  0  0  0  0  0  0  0  0  0
    4.3320  -13.2289   24.7465 C   0  0  0  0  0  0  0  0  0  0  0  0
    3.7682  -11.8070   24.6048 N   0  0  0  0  0  0  0  0  0  0  0  0
    4.1982  -10.7452   23.8380 C   0  0  0  0  0  0  0  0  0  0  0  0
    5.0634  -10.8859   22.7667 C   0  0  0  0  0  0  0  0  0  0  0  0
    5.5649   -9.7413   22.1488 C   0  0  0  0  0  0  0  0  0  0  0  0
    5.2928   -8.4794   22.6539 C   0  0  0  0  0  0  0  0  0  0  0  0
    4.4763   -8.3640   23.7612 C   0  0  0  0  0  0  0  0  0  0  0  0
    3.8579   -9.4811   24.2896 C   0  0  0  0  0  0  0  0  0  0  0  0
    3.6195  -13.8561   25.8608 C   0  0  0  0  0  0  0  0  0  0  0  0
    4.0756  -14.9485   26.5728 C   0  0  0  0  0  0  0  0  0  0  0  0
    3.0017  -15.1784   27.8737 S   0  0  0  0  0  0  0  0  0  0  0  0
    1.9885  -13.9343   27.4188 N   0  0  0  0  0  0  0  0  0  0  0  0
    2.4259  -13.3003   26.3466 N   0  0  0  0  0  0  0  0  0  0  0  0
  1  2  2  0
  2  3  1  0
  3  4  1  0
  4  5  2  0
  5  6  1  0
  6  7  2  0
  7  8  1  0
  8  9  2  0
  2 10  1  0
 10 11  2  0
 11 12  1  0
 12 13  1  0
 13 14  2  0
  9  4  1  0
 14 10  1  0
M  END
>  <inspiration_score>  (313) 
0.728

>  <HIPPO Pose ID>  (313) 
1738109

>  <ref_pdb>  (313) 
x0421a

>  <ref_mols>  (313) 
x0492b

>  <HIPPO Compound ID>  (313) 
523965

>  <energy_score>  (313) 
-61.290939

>  <tags>  (313) 
CpKRS_FrAncestor_bulkdock_iter1,CpKRS_FrAncestor_bulkdock_iter1_cluster_best5,fragmenstein_placed,CpKRS_FrAncestor_bulkdock_iter1_exported,BulkDock Fragalysis export

>  <inchikey>  (313) 
HZJWUHQQAFRKRW-UHFFFAOYSA-N

>  <placement_batch>  (313) 
CpKRS_FrAncestor_bulkdock_iter1_cluster_best5

>  <alias>  (313) 
HZJWUHQQAFRKRW-UHFFFAOYSA-N-P35

>  <name>  (313) 
HZJWUHQQAFRKRW-UHFFFAOYSA-N-P35

>  <smiles>  (313) 
O=C(Nc1ccccc1)c1csnn1

>  <subsites>  (313) 


>  <distance_score>  (313) 
0.953162

$$$$
AHEWOTCHCVXPHE-UHFFFAOYSA-N-P5
     RDKit          3D

 15 16  0  0  0  0  0  0  0  0999 V2000
    2.6024  -16.3935   28.0141 C   0  0  0  0  0  0  0  0  0  0  0  0
    2.3803  -15.1981   27.1746 C   0  0  0  0  0  0  0  0  0  0  0  0
    1.3093  -14.4304   27.2138 N   0  0  0  0  0  0  0  0  0  0  0  0
    1.3946  -13.3865   26.3138 N   0  0  0  0  0  0  0  0  0  0  0  0
    2.5290  -13.4169   25.6578 C   0  0  0  0  0  0  0  0  0  0  0  0
    2.8962  -12.5150   24.7229 N   0  0  0  0  0  0  0  0  0  0  0  0
    4.2046  -12.3911   23.9054 C   0  0  0  0  0  0  0  0  0  0  0  0
    5.1953  -13.0020   23.9683 O   0  0  0  0  0  0  0  0  0  0  0  0
    4.0133  -11.2120   22.9603 C   0  0  2  0  0  0  0  0  0  0  0  0
    5.1475  -11.1246   21.9421 C   0  0  0  0  0  0  0  0  0  0  0  0
    5.1733   -9.6858   21.4699 C   0  0  0  0  0  0  0  0  0  0  0  0
    4.6331   -8.9651   22.6638 C   0  0  0  0  0  0  0  0  0  0  0  0
    4.5968   -7.7465   22.7582 O   0  0  0  0  0  0  0  0  0  0  0  0
    4.0976   -9.8902   23.7161 C   0  0  0  0  0  0  0  0  0  0  0  0
    3.5689  -14.7029   26.0457 S   0  0  0  0  0  0  0  0  0  0  0  0
  1  2  1  0
  2  3  2  0
  3  4  1  0
  4  5  2  0
  5  6  1  0
  6  7  1  0
  7  8  2  0
  9  7  1  1
  9 10  1  0
 10 11  1  0
 11 12  1  0
 12 13  2  0
 12 14  1  0
  5 15  1  0
 15  2  1  0
 14  9  1  0
M  END
>  <inspiration_score>  (314) 
0.756

>  <HIPPO Pose ID>  (314) 
1738319

>  <ref_pdb>  (314) 
x0421a

>  <ref_mols>  (314) 
x0407b

>  <HIPPO Compound ID>  (314) 
524035

>  <energy_score>  (314) 
-91.659539

>  <tags>  (314) 
CpKRS_FrAncestor_bulkdock_iter1,CpKRS_FrAncestor_bulkdock_iter1_cluster_best5,fragmenstein_placed,CpKRS_FrAncestor_bulkdock_iter1_exported,BulkDock Fragalysis export

>  <inchikey>  (314) 
AHEWOTCHCVXPHE-UHFFFAOYSA-N

>  <placement_batch>  (314) 
CpKRS_FrAncestor_bulkdock_iter1_cluster_best5

>  <alias>  (314) 
AHEWOTCHCVXPHE-UHFFFAOYSA-N-P5

>  <name>  (314) 
AHEWOTCHCVXPHE-UHFFFAOYSA-N-P5

>  <smiles>  (314) 
Cc1nnc(NC(=O)C2CCC(=O)C2)s1

>  <subsites>  (314) 


>  <distance_score>  (314) 
0.60035

$$$$
IOFRNZCPXLUGLD-UHFFFAOYSA-N-P15
     RDKit          3D

 18 19  0  0  0  0  0  0  0  0999 V2000
    0.7712  -21.4336   10.8637 C   0  0  0  0  0  0  0  0  0  0  0  0
    1.3160  -22.6905   11.4040 C   0  0  0  0  0  0  0  0  0  0  0  0
    2.2279  -23.4425   10.8221 N   0  0  0  0  0  0  0  0  0  0  0  0
    2.4636  -24.5485   11.6266 C   0  0  0  0  0  0  0  0  0  0  0  0
    1.8285  -24.5415   12.8505 C   0  0  0  0  0  0  0  0  0  0  0  0
    1.9528  -25.4410   13.9791 C   0  0  0  0  0  0  0  0  0  0  0  0
    1.7032  -26.5783   13.8804 O   0  0  0  0  0  0  0  0  0  0  0  0
    2.4190  -24.6182   15.2066 N   0  0  0  0  0  0  0  0  0  0  0  0
    2.7517  -25.0245   16.4882 C   0  0  0  0  0  0  0  0  0  0  0  0
    2.2058  -26.1680   17.0547 C   0  0  0  0  0  0  0  0  0  0  0  0
    2.4607  -26.4696   18.3976 C   0  0  0  0  0  0  0  0  0  0  0  0
    3.2980  -25.6522   19.1698 C   0  0  0  0  0  0  0  0  0  0  0  0
    3.5208  -25.9539   20.6357 C   0  0  0  0  0  0  0  0  0  0  0  0
    3.3089  -24.7765   21.4918 C   0  0  0  0  0  0  0  0  0  0  0  0
    3.1691  -23.8101   22.1207 N   0  0  0  0  0  0  0  0  0  0  0  0
    3.9061  -24.5461   18.5588 C   0  0  0  0  0  0  0  0  0  0  0  0
    3.6063  -24.2183   17.2369 C   0  0  0  0  0  0  0  0  0  0  0  0
    0.7206  -23.2476   12.9129 S   0  0  0  0  0  0  0  0  0  0  0  0
  1  2  1  0
  2  3  2  0
  3  4  1  0
  4  5  2  0
  5  6  1  0
  6  7  2  0
  6  8  1  0
  8  9  1  0
  9 10  2  0
 10 11  1  0
 11 12  2  0
 12 13  1  0
 13 14  1  0
 14 15  3  0
 12 16  1  0
 16 17  2  0
  5 18  1  0
 18  2  1  0
 17  9  1  0
M  END
>  <inspiration_score>  (315) 
0.666

>  <HIPPO Pose ID>  (315) 
1739873

>  <ref_pdb>  (315) 
x0421a

>  <ref_mols>  (315) 
x0426b

>  <HIPPO Compound ID>  (315) 
524578

>  <energy_score>  (315) 
-59.371697

>  <tags>  (315) 
CpKRS_FrAncestor_bulkdock_iter1,CpKRS_FrAncestor_bulkdock_iter1_cluster_best5,fragmenstein_placed,CpKRS_FrAncestor_bulkdock_iter1_exported,BulkDock Fragalysis export

>  <inchikey>  (315) 
IOFRNZCPXLUGLD-UHFFFAOYSA-N

>  <placement_batch>  (315) 
CpKRS_FrAncestor_bulkdock_iter1_cluster_best5

>  <alias>  (315) 
IOFRNZCPXLUGLD-UHFFFAOYSA-N-P15

>  <name>  (315) 
IOFRNZCPXLUGLD-UHFFFAOYSA-N-P15

>  <smiles>  (315) 
Cc1ncc(C(=O)Nc2ccc(CC#N)cc2)s1

>  <subsites>  (315) 


>  <distance_score>  (315) 
0.825117

$$$$
C524942-P35
     RDKit          3D

 14 15  0  0  0  0  0  0  0  0999 V2000
    5.6408  -13.3795   24.9316 O   0  0  0  0  0  0  0  0  0  0  0  0
    4.5224  -13.0721   25.0487 C   0  0  0  0  0  0  0  0  0  0  0  0
    3.7464  -11.8829   24.4534 N   0  0  0  0  0  0  0  0  0  0  0  0
    4.1862  -10.8106   23.6958 C   0  0  0  0  0  0  0  0  0  0  0  0
    3.2706   -9.9689   23.1004 C   0  0  0  0  0  0  0  0  0  0  0  0
    3.7315   -8.8482   22.4198 C   0  0  0  0  0  0  0  0  0  0  0  0
    5.0855   -8.5706   22.4042 C   0  0  0  0  0  0  0  0  0  0  0  0
    5.9961   -9.3423   23.0121 N   0  0  0  0  0  0  0  0  0  0  0  0
    5.5256  -10.4621   23.6124 C   0  0  0  0  0  0  0  0  0  0  0  0
    3.6074  -13.7816   25.9464 C   0  0  0  0  0  0  0  0  0  0  0  0
    3.9904  -14.8380   26.7510 C   0  0  0  0  0  0  0  0  0  0  0  0
    2.8076  -15.0992   27.9516 S   0  0  0  0  0  0  0  0  0  0  0  0
    1.8169  -13.9147   27.2214 C   0  0  0  0  0  0  0  0  0  0  0  0
    2.3133  -13.2878   26.1819 N   0  0  0  0  0  0  0  0  0  0  0  0
  1  2  2  0
  2  3  1  0
  3  4  1  0
  4  5  2  0
  5  6  1  0
  6  7  2  0
  7  8  1  0
  8  9  2  0
  2 10  1  0
 10 11  2  0
 11 12  1  0
 12 13  1  0
 13 14  2  0
  9  4  1  0
 14 10  1  0
M  END
>  <inspiration_score>  (316) 
0.755

>  <HIPPO Pose ID>  (316) 
1740910

>  <ref_pdb>  (316) 
x0485b

>  <ref_mols>  (316) 
x0492b

>  <HIPPO Compound ID>  (316) 
524942

>  <energy_score>  (316) 
-75.58467

>  <tags>  (316) 
CpKRS_FrAncestor_bulkdock_iter1,CpKRS_FrAncestor_bulkdock_iter1_cluster_best5,fragmenstein_placed,CpKRS_FrAncestor_bulkdock_iter1_exported,BulkDock Fragalysis export

>  <inchikey>  (316) 
BMURVJUKMLFSSB-UHFFFAOYSA-N

>  <placement_batch>  (316) 
CpKRS_FrAncestor_bulkdock_iter1_cluster_best5

>  <alias>  (316) 
C524942-P35

>  <name>  (316) 
C524942-P35

>  <smiles>  (316) 
O=C(Nc1cccnc1)c1cscn1

>  <subsites>  (316) 


>  <distance_score>  (316) 
0.933989

$$$$
C525057-P35
     RDKit          3D

 14 15  0  0  0  0  0  0  0  0999 V2000
    5.2398  -13.7062   24.3720 O   0  0  0  0  0  0  0  0  0  0  0  0
    4.3047  -13.1853   24.8382 C   0  0  0  0  0  0  0  0  0  0  0  0
    3.7269  -11.7702   24.6066 N   0  0  0  0  0  0  0  0  0  0  0  0
    4.2123  -10.7125   23.8571 C   0  0  0  0  0  0  0  0  0  0  0  0
    5.1297  -10.8676   22.8369 C   0  0  0  0  0  0  0  0  0  0  0  0
    5.6067   -9.7295   22.1920 C   0  0  0  0  0  0  0  0  0  0  0  0
    5.1988   -8.4835   22.6206 C   0  0  0  0  0  0  0  0  0  0  0  0
    4.3417   -8.3033   23.6355 N   0  0  0  0  0  0  0  0  0  0  0  0
    3.8420   -9.4217   24.1950 C   0  0  0  0  0  0  0  0  0  0  0  0
    3.4727  -13.7776   25.8979 C   0  0  0  0  0  0  0  0  0  0  0  0
    2.3107  -13.2363   26.2479 N   0  0  0  0  0  0  0  0  0  0  0  0
    1.8533  -13.8618   27.3843 C   0  0  0  0  0  0  0  0  0  0  0  0
    2.6668  -14.8467   27.8944 C   0  0  0  0  0  0  0  0  0  0  0  0
    4.0373  -15.0558   26.8857 S   0  0  0  0  0  0  0  0  0  0  0  0
  1  2  2  0
  2  3  1  0
  3  4  1  0
  4  5  2  0
  5  6  1  0
  6  7  2  0
  7  8  1  0
  8  9  2  0
  2 10  1  0
 10 11  2  0
 11 12  1  0
 12 13  2  0
 13 14  1  0
  9  4  1  0
 14 10  1  0
M  END
>  <inspiration_score>  (317) 
0.753

>  <HIPPO Pose ID>  (317) 
1741223

>  <ref_pdb>  (317) 
x0485b

>  <ref_mols>  (317) 
x0492b

>  <HIPPO Compound ID>  (317) 
525057

>  <energy_score>  (317) 
-65.765374

>  <tags>  (317) 
CpKRS_FrAncestor_bulkdock_iter1,CpKRS_FrAncestor_bulkdock_iter1_cluster_best5,fragmenstein_placed,CpKRS_FrAncestor_bulkdock_iter1_exported,BulkDock Fragalysis export

>  <inchikey>  (317) 
RJBKTYAUZUHHCL-UHFFFAOYSA-N

>  <placement_batch>  (317) 
CpKRS_FrAncestor_bulkdock_iter1_cluster_best5

>  <alias>  (317) 
C525057-P35

>  <name>  (317) 
C525057-P35

>  <smiles>  (317) 
O=C(Nc1cccnc1)c1nccs1

>  <subsites>  (317) 


>  <distance_score>  (317) 
0.99417

$$$$
C525105-P3
     RDKit          3D

 16 17  0  0  0  0  0  0  0  0999 V2000
    1.4200    5.9422   46.1071 C   0  0  0  0  0  0  0  0  0  0  0  0
    2.4318    5.4391   45.1474 C   0  0  0  0  0  0  0  0  0  0  0  0
    3.2586    4.4450   45.3958 N   0  0  0  0  0  0  0  0  0  0  0  0
    4.0777    4.1784   44.3205 N   0  0  0  0  0  0  0  0  0  0  0  0
    3.8459    4.9906   43.3195 C   0  0  0  0  0  0  0  0  0  0  0  0
    4.4893    5.0299   42.1343 N   0  0  0  0  0  0  0  0  0  0  0  0
    5.7823    4.3190   41.6693 C   0  0  0  0  0  0  0  0  0  0  0  0
    6.4493    3.5294   42.2130 O   0  0  0  0  0  0  0  0  0  0  0  0
    6.1238    4.7783   40.2403 C   0  0  0  0  0  0  0  0  0  0  0  0
    4.9579    4.7823   39.2697 C   0  0  0  0  0  0  0  0  0  0  0  0
    4.5596    6.1967   38.8211 C   0  0  0  0  0  0  0  0  0  0  0  0
    4.5558    7.0587   40.0035 N   0  0  0  0  0  0  0  0  0  0  0  0
    3.8441    8.3120   39.7500 C   0  0  0  0  0  0  0  0  0  0  0  0
    5.9510    7.3343   40.3721 C   0  0  0  0  0  0  0  0  0  0  0  0
    6.8418    6.1046   40.1815 C   0  0  0  0  0  0  0  0  0  0  0  0
    2.6040    6.1176   43.5719 S   0  0  0  0  0  0  0  0  0  0  0  0
  1  2  1  0
  2  3  2  0
  3  4  1  0
  4  5  2  0
  5  6  1  0
  6  7  1  0
  7  8  2  0
  7  9  1  0
  9 10  1  0
 10 11  1  0
 11 12  1  0
 12 13  1  0
 12 14  1  0
 14 15  1  0
  5 16  1  0
 16  2  1  0
 15  9  1  0
M  END
>  <inspiration_score>  (318) 
0.734

>  <HIPPO Pose ID>  (318) 
1741352

>  <ref_pdb>  (318) 
x0485b

>  <ref_mols>  (318) 
x0407c

>  <HIPPO Compound ID>  (318) 
525105

>  <energy_score>  (318) 
-119.742659

>  <tags>  (318) 
CpKRS_FrAncestor_bulkdock_iter1,CpKRS_FrAncestor_bulkdock_iter1_cluster_best5,fragmenstein_placed,CpKRS_FrAncestor_bulkdock_iter1_exported,BulkDock Fragalysis export

>  <inchikey>  (318) 
FMADFUULVGHMSI-UHFFFAOYSA-N

>  <placement_batch>  (318) 
CpKRS_FrAncestor_bulkdock_iter1_cluster_best5

>  <alias>  (318) 
C525105-P3

>  <name>  (318) 
C525105-P3

>  <smiles>  (318) 
Cc1nnc(NC(=O)C2CCN(C)CC2)s1

>  <subsites>  (318) 


>  <distance_score>  (318) 
0.662428

$$$$
C33010-P33
     RDKit          3D

 15 16  0  0  0  0  0  0  0  0999 V2000
    5.9519   -8.0157   24.4147 C   0  0  0  0  0  0  0  0  0  0  0  0
    5.4803   -9.2342   23.8410 O   0  0  0  0  0  0  0  0  0  0  0  0
    4.1759   -9.5245   24.1274 C   0  0  0  0  0  0  0  0  0  0  0  0
    3.4436   -8.7980   24.7858 O   0  0  0  0  0  0  0  0  0  0  0  0
    3.7742  -10.8325   23.4528 C   0  0  0  0  0  0  0  0  0  0  0  0
    2.3434  -11.2624   23.7976 C   0  0  0  0  0  0  0  0  0  0  0  0
    2.2436  -12.0309   25.1148 C   0  0  0  0  0  0  0  0  0  0  0  0
    3.2356  -13.1067   25.2112 N   0  0  0  0  0  0  0  0  0  0  0  0
    3.1538  -14.0327   26.2322 C   0  0  0  0  0  0  0  0  0  0  0  0
    2.1633  -14.1680   27.2054 C   0  0  0  0  0  0  0  0  0  0  0  0
    2.2938  -15.1868   28.1391 N   0  0  0  0  0  0  0  0  0  0  0  0
    3.4044  -15.8330   27.8688 C   0  0  0  0  0  0  0  0  0  0  0  0
    4.3475  -15.2416   26.5789 S   0  0  0  0  0  0  0  0  0  0  0  0
    4.1500  -13.2790   24.0856 C   0  0  0  0  0  0  0  0  0  0  0  0
    4.7935  -11.9409   23.7454 C   0  0  0  0  0  0  0  0  0  0  0  0
  1  2  1  0
  2  3  1  0
  3  4  2  0
  3  5  1  0
  5  6  1  0
  6  7  1  0
  7  8  1  0
  8  9  1  0
  9 10  2  0
 10 11  1  0
 11 12  2  0
 12 13  1  0
  8 14  1  0
 14 15  1  0
 15  5  1  0
 13  9  1  0
M  END
>  <inspiration_score>  (319) 
0.773

>  <HIPPO Pose ID>  (319) 
1743876

>  <ref_pdb>  (319) 
x0485b

>  <ref_mols>  (319) 
x0489a

>  <HIPPO Compound ID>  (319) 
33010

>  <energy_score>  (319) 
-78.148632

>  <tags>  (319) 
CpKRS_FrAncestor_bulkdock_iter1,CpKRS_FrAncestor_bulkdock_iter1_cluster_best5,fragmenstein_placed,CpKRS_FrAncestor_bulkdock_iter1_exported,BulkDock Fragalysis export

>  <inchikey>  (319) 
VRWKLJQFIUZCFG-UHFFFAOYSA-N

>  <placement_batch>  (319) 
CpKRS_FrAncestor_bulkdock_iter1_cluster_best5

>  <alias>  (319) 
C33010-P33

>  <name>  (319) 
C33010-P33

>  <smiles>  (319) 
COC(=O)C1CCN(c2cncs2)CC1

>  <subsites>  (319) 


>  <distance_score>  (319) 
0.736613

$$$$
C33039-P3
     RDKit          3D

 18 20  0  0  0  0  0  0  0  0999 V2000
    3.2796    2.9921   46.8037 C   0  0  0  0  0  0  0  0  0  0  0  0
    2.6722    4.2648   46.3356 C   0  0  0  0  0  0  0  0  0  0  0  0
    1.7385    4.8806   47.1714 C   0  0  0  0  0  0  0  0  0  0  0  0
    1.1237    6.0680   46.8157 C   0  0  0  0  0  0  0  0  0  0  0  0
    1.4263    6.6916   45.6191 C   0  0  0  0  0  0  0  0  0  0  0  0
    2.3192    6.0522   44.7607 C   0  0  0  0  0  0  0  0  0  0  0  0
    2.8064    6.5359   43.1943 S   0  0  0  0  0  0  0  0  0  0  0  0
    3.8431    5.2019   43.1462 C   0  0  0  0  0  0  0  0  0  0  0  0
    4.6148    5.1939   42.0560 N   0  0  0  0  0  0  0  0  0  0  0  0
    5.8221    4.2961   41.6844 C   0  0  0  0  0  0  0  0  0  0  0  0
    6.2793    3.3766   42.2381 O   0  0  0  0  0  0  0  0  0  0  0  0
    6.3282    4.8897   40.3607 C   0  0  1  0  0  0  0  0  0  0  0  0
    5.2965    4.7791   39.2460 C   0  0  0  0  0  0  0  0  0  0  0  0
    4.9467    6.2075   38.8742 C   0  0  0  0  0  0  0  0  0  0  0  0
    6.1219    6.9898   39.3901 C   0  0  0  0  0  0  0  0  0  0  0  0
    6.5129    6.3008   40.5709 O   0  0  0  0  0  0  0  0  0  0  0  0
    3.8401    4.3740   44.1478 N   0  0  0  0  0  0  0  0  0  0  0  0
    2.9607    4.8585   45.0960 C   0  0  0  0  0  0  0  0  0  0  0  0
  1  2  1  0
  2  3  2  0
  3  4  1  0
  4  5  2  0
  5  6  1  0
  6  7  1  0
  7  8  1  0
  8  9  1  0
  9 10  1  0
 10 11  2  0
 12 10  1  1
 12 13  1  0
 13 14  1  0
 14 15  1  0
 15 16  1  0
  8 17  2  0
 17 18  1  0
 18  2  1  0
 18  6  2  0
 16 12  1  0
M  END
>  <inspiration_score>  (320) 
0.846

>  <HIPPO Pose ID>  (320) 
1743912

>  <ref_pdb>  (320) 
x0485b

>  <ref_mols>  (320) 
x0407c

>  <HIPPO Compound ID>  (320) 
33039

>  <energy_score>  (320) 
-75.309009

>  <tags>  (320) 
CpKRS_FrAncestor_bulkdock_iter1,CpKRS_FrAncestor_bulkdock_iter1_cluster_best5,fragmenstein_placed,CpKRS_FrAncestor_bulkdock_iter1_exported,BulkDock Fragalysis export

>  <inchikey>  (320) 
SJXBQRZUENKNEV-UHFFFAOYSA-N

>  <placement_batch>  (320) 
CpKRS_FrAncestor_bulkdock_iter1_cluster_best5

>  <alias>  (320) 
C33039-P3

>  <name>  (320) 
C33039-P3

>  <smiles>  (320) 
Cc1cccc2sc(NC(=O)[C@H]3CCCO3)nc12

>  <subsites>  (320) 


>  <distance_score>  (320) 
0.8758

$$$$
