ver_1.2
     RDKit          3D

 14 15  0  0  0  0  0  0  0  0999 V2000
   -3.6141   -1.3192   -1.8257 Br  0  0  0  0  0  0  0  0  0  0  0  0
   -2.5732   -0.2820   -0.6231 C   0  0  0  0  0  0  0  0  0  0  0  0
   -3.0038   -0.0492    0.6858 C   0  0  0  0  0  0  0  0  0  0  0  0
   -2.2199    0.7085    1.5273 C   0  0  0  0  0  0  0  0  0  0  0  0
   -1.0078    1.2682    1.1589 C   0  0  0  0  0  0  0  0  0  0  0  0
   -0.5956    1.0293   -0.1379 C   0  0  0  0  0  0  0  0  0  0  0  0
    0.7007    1.6158   -0.5651 C   0  0  0  0  0  0  0  0  0  0  0  0
    1.8168    0.7564   -0.3313 N   0  0  0  0  0  0  0  0  0  0  0  0
    2.0076    0.4041    1.0590 C   0  0  0  0  0  0  0  0  0  0  0  0
    3.1347   -0.5799    1.1739 C   0  0  0  0  0  0  0  0  0  0  0  0
    2.8975   -1.7757    0.4986 O   0  0  0  0  0  0  0  0  0  0  0  0
    1.9278   -1.6833   -0.4715 C   0  0  0  0  0  0  0  0  0  0  0  0
    1.8883   -0.3758   -1.1976 C   0  0  0  0  0  0  0  0  0  0  0  0
   -1.3589    0.2829   -0.9811 C   0  0  0  0  0  0  0  0  0  0  0  0
  1  2  1  0
  2  3  2  0
  3  4  1  0
  4  5  2  0
  5  6  1  0
  6  7  1  0
  7  8  1  0
  8  9  1  0
  9 10  1  0
 10 11  1  0
 11 12  1  0
 12 13  1  0
  6 14  2  0
 14  2  1  0
 13  8  1  0
M  END
>  <ref_url>  (1) 
https://github.com/mwinokan/BulkDock

>  <submitter_name>  (1) 
Max Winokan

>  <submitter_email>  (1) 
max.winokan@diamond.ac.uk

>  <submitter_institution>  (1) 
DLS

>  <generation_date>  (1) 
2025-09-06

>  <method>  (1) 
CpKRS_FrAncestor_bulkdock_iter2

>  <HIPPO Pose ID>  (1) 
HIPPO Pose ID

>  <HIPPO Compound ID>  (1) 
HIPPO Compound ID

>  <smiles>  (1) 
smiles

>  <ref_pdb>  (1) 
protein reference

>  <ref_mols>  (1) 
fragment inspirations

>  <alias>  (1) 
alias

>  <distance_score>  (1) 
distance_score

>  <energy_score>  (1) 
energy_score

>  <subsites>  (1) 
subsites

>  <tags>  (1) 
tags

>  <placement_batch>  (1) 
BulkDock placement batch

$$$$
DQGAMPWGTUCNGP-UHFFFAOYSA-N-P60
     RDKit          3D

 14 15  0  0  0  0  0  0  0  0999 V2000
   -3.8598  -25.4425   27.2110 Br  0  0  0  0  0  0  0  0  0  0  0  0
   -2.7267  -25.6659   25.7202 C   0  0  0  0  0  0  0  0  0  0  0  0
   -1.9493  -24.6062   25.2683 C   0  0  0  0  0  0  0  0  0  0  0  0
   -1.1161  -24.7875   24.1657 C   0  0  0  0  0  0  0  0  0  0  0  0
   -1.0417  -26.0296   23.5351 C   0  0  0  0  0  0  0  0  0  0  0  0
   -1.8397  -27.0939   23.9736 C   0  0  0  0  0  0  0  0  0  0  0  0
   -1.7998  -28.4281   23.2648 C   0  0  0  0  0  0  0  0  0  0  0  0
   -0.6840  -29.2948   23.6752 N   0  0  0  0  0  0  0  0  0  0  0  0
   -0.5967  -30.4499   22.7450 C   0  0  0  0  0  0  0  0  0  0  0  0
   -0.2362  -31.7721   23.4388 C   0  0  0  0  0  0  0  0  0  0  0  0
   -1.2136  -32.1391   24.4228 O   0  0  0  0  0  0  0  0  0  0  0  0
   -1.6607  -31.0299   25.2135 C   0  0  0  0  0  0  0  0  0  0  0  0
   -0.7925  -29.7727   25.0667 C   0  0  0  0  0  0  0  0  0  0  0  0
   -2.6889  -26.8981   25.0727 C   0  0  0  0  0  0  0  0  0  0  0  0
  1  2  1  0
  2  3  2  0
  3  4  1  0
  4  5  2  0
  5  6  1  0
  6  7  1  0
  7  8  1  0
  8  9  1  0
  9 10  1  0
 10 11  1  0
 11 12  1  0
 12 13  1  0
  6 14  2  0
 14  2  1  0
 13  8  1  0
M  END
>  <inchikey>  (1) 
DQGAMPWGTUCNGP-UHFFFAOYSA-N

>  <tags>  (1) 
fragmenstein_placed,CpKRS_FrAncestor_bulkdock_iter2

>  <ref_pdb>  (1) 
x0540b

>  <energy_score>  (1) 
-7.327574

>  <distance_score>  (1) 
0.39607

>  <HIPPO Pose ID>  (1) 
52468

>  <ref_mols>  (1) 
x0675b

>  <smiles>  (1) 
Brc1cccc(CN2CCOCC2)c1

>  <HIPPO Compound ID>  (1) 
447476

>  <alias>  (1) 
DQGAMPWGTUCNGP-UHFFFAOYSA-N-P60

>  <subsites>  (1) 


>  <placement_batch>  (1) 
CpKRS_FrAncestor_bulkdock_iter2

>  <name>  (1) 
DQGAMPWGTUCNGP-UHFFFAOYSA-N-P60

$$$$
OGYMDBJRCOBHEY-FIBGUPNXSA-N-P54
     RDKit          3D

 16 16  0  0  0  0  0  0  0  0999 V2000
    7.6920  -34.7954    7.5628 H   0  0  0  0  0  0  0  0  0  0  0  0
    7.1855  -35.7170    7.2618 C   0  0  0  0  0  0  0  0  0  0  0  0
    7.7012  -36.0889    6.3705 H   0  0  0  0  0  0  0  0  0  0  0  0
    6.1467  -35.4976    6.9973 H   0  0  0  0  0  0  0  0  0  0  0  0
    7.2552  -36.7249    8.3432 N   0  0  0  0  0  0  0  0  0  0  0  0
    6.8005  -38.0549    7.8849 C   0  0  0  0  0  0  0  0  0  0  0  0
    6.5743  -36.1880    9.8077 S   0  0  0  0  0  0  0  0  0  0  0  0
    7.0949  -34.8764   10.1382 O   0  0  0  0  0  0  0  0  0  0  0  0
    5.1405  -36.3820    9.7116 O   0  0  0  0  0  0  0  0  0  0  0  0
    7.2024  -37.3267   11.0177 C   0  0  0  0  0  0  0  0  0  0  0  0
    6.2790  -38.1526   11.6818 C   0  0  0  0  0  0  0  0  0  0  0  0
    6.6995  -38.9794   12.7222 C   0  0  0  0  0  0  0  0  0  0  0  0
    8.0368  -38.9833   13.1056 C   0  0  0  0  0  0  0  0  0  0  0  0
    8.9581  -38.1713   12.4429 C   0  0  0  0  0  0  0  0  0  0  0  0
    8.5493  -37.3372   11.3955 C   0  0  0  0  0  0  0  0  0  0  0  0
    9.9048  -36.2862   10.5836 Br  0  0  0  0  0  0  0  0  0  0  0  0
  1  2  1  0
  2  3  1  0
  2  4  1  0
  2  5  1  0
  5  6  1  0
  5  7  1  0
  7  8  2  0
  7  9  2  0
  7 10  1  0
 10 11  2  0
 11 12  1  0
 12 13  2  0
 13 14  1  0
 14 15  2  0
 15 16  1  0
 15 10  1  0
M  ISO  3   1   2   3   2   4   2
M  END
>  <inchikey>  (2) 
OGYMDBJRCOBHEY-UHFFFAOYSA-N

>  <tags>  (2) 
fragmenstein_placed,CpKRS_FrAncestor_bulkdock_iter2

>  <ref_pdb>  (2) 
x0540b

>  <energy_score>  (2) 
-40.02951

>  <distance_score>  (2) 
0.212526

>  <HIPPO Pose ID>  (2) 
52541

>  <ref_mols>  (2) 
x0639c

>  <smiles>  (2) 
[2H]C([2H])([2H])N(C)S(=O)(=O)c1ccccc1Br

>  <HIPPO Compound ID>  (2) 
447488

>  <alias>  (2) 
OGYMDBJRCOBHEY-FIBGUPNXSA-N-P54

>  <subsites>  (2) 


>  <placement_batch>  (2) 
CpKRS_FrAncestor_bulkdock_iter2

>  <name>  (2) 
OGYMDBJRCOBHEY-FIBGUPNXSA-N-P54

$$$$
VPUQRQWSWHKWPM-BMSJAHLVSA-N-P54
     RDKit          3D

 17 17  0  0  0  0  0  0  0  0999 V2000
    6.0592  -35.5052    7.0124 H   0  0  0  0  0  0  0  0  0  0  0  0
    7.1109  -35.7034    7.2404 C   0  0  0  0  0  0  0  0  0  0  0  0
    7.6012  -36.0700    6.3326 H   0  0  0  0  0  0  0  0  0  0  0  0
    7.6100  -34.7706    7.5185 H   0  0  0  0  0  0  0  0  0  0  0  0
    7.2392  -36.7036    8.3227 N   0  0  0  0  0  0  0  0  0  0  0  0
    6.7890  -38.0435    7.8898 C   0  0  0  0  0  0  0  0  0  0  0  0
    6.6025  -36.1693    9.8093 S   0  0  0  0  0  0  0  0  0  0  0  0
    5.1673  -36.3724    9.7601 O   0  0  0  0  0  0  0  0  0  0  0  0
    7.1270  -34.8538   10.1200 O   0  0  0  0  0  0  0  0  0  0  0  0
    7.2773  -37.3013   11.0020 C   0  0  0  0  0  0  0  0  0  0  0  0
    6.3903  -38.1331   11.7055 C   0  0  0  0  0  0  0  0  0  0  0  0
    6.8657  -38.9454   12.7331 C   0  0  0  0  0  0  0  0  0  0  0  0
    8.2188  -38.9273   13.0607 C   0  0  0  0  0  0  0  0  0  0  0  0
    9.1025  -38.1081   12.3540 C   0  0  0  0  0  0  0  0  0  0  0  0
    8.6422  -37.2858   11.3183 C   0  0  0  0  0  0  0  0  0  0  0  0
    9.6015  -36.4670   10.6361 C   0  0  0  0  0  0  0  0  0  0  0  0
   10.4058  -35.7903   10.0555 C   0  0  0  0  0  0  0  0  0  0  0  0
  1  2  1  0
  2  3  1  0
  2  4  1  0
  2  5  1  0
  5  6  1  0
  5  7  1  0
  7  8  2  0
  7  9  2  0
  7 10  1  0
 10 11  2  0
 11 12  1  0
 12 13  2  0
 13 14  1  0
 14 15  2  0
 15 16  1  0
 16 17  3  0
 15 10  1  0
M  ISO  3   1   2   3   2   4   2
M  END
>  <inchikey>  (3) 
VPUQRQWSWHKWPM-UHFFFAOYSA-N

>  <tags>  (3) 
fragmenstein_placed,CpKRS_FrAncestor_bulkdock_iter2

>  <ref_pdb>  (3) 
x0540b

>  <energy_score>  (3) 
-30.186679

>  <distance_score>  (3) 
0.197841

>  <HIPPO Pose ID>  (3) 
52544

>  <ref_mols>  (3) 
x0639c

>  <smiles>  (3) 
[2H]C([2H])([2H])N(C)S(=O)(=O)c1ccccc1C#C

>  <HIPPO Compound ID>  (3) 
447489

>  <alias>  (3) 
VPUQRQWSWHKWPM-BMSJAHLVSA-N-P54

>  <subsites>  (3) 


>  <placement_batch>  (3) 
CpKRS_FrAncestor_bulkdock_iter2

>  <name>  (3) 
VPUQRQWSWHKWPM-BMSJAHLVSA-N-P54

$$$$
HKJYKZQQIJTREK-FIBGUPNXSA-N-P54
     RDKit          3D

 16 16  0  0  0  0  0  0  0  0999 V2000
    7.7335  -34.7896    7.5765 H   0  0  0  0  0  0  0  0  0  0  0  0
    7.2173  -35.7048    7.2721 C   0  0  0  0  0  0  0  0  0  0  0  0
    7.7282  -36.0781    6.3786 H   0  0  0  0  0  0  0  0  0  0  0  0
    6.1805  -35.4740    7.0097 H   0  0  0  0  0  0  0  0  0  0  0  0
    7.2779  -36.7176    8.3493 N   0  0  0  0  0  0  0  0  0  0  0  0
    6.8179  -38.0435    7.8849 C   0  0  0  0  0  0  0  0  0  0  0  0
    6.5999  -36.1831    9.8154 S   0  0  0  0  0  0  0  0  0  0  0  0
    7.1155  -34.8693   10.1446 O   0  0  0  0  0  0  0  0  0  0  0  0
    5.1665  -36.3832    9.7251 O   0  0  0  0  0  0  0  0  0  0  0  0
    7.2343  -37.3181   11.0208 C   0  0  0  0  0  0  0  0  0  0  0  0
    6.3257  -38.1643   11.6788 C   0  0  0  0  0  0  0  0  0  0  0  0
    6.7630  -38.9866   12.7159 C   0  0  0  0  0  0  0  0  0  0  0  0
    8.1005  -38.9644   13.1004 C   0  0  0  0  0  0  0  0  0  0  0  0
    9.0050  -38.1294   12.4421 C   0  0  0  0  0  0  0  0  0  0  0  0
    8.5793  -37.2994   11.3995 C   0  0  0  0  0  0  0  0  0  0  0  0
    9.7801  -36.3036   10.6597 Cl  0  0  0  0  0  0  0  0  0  0  0  0
  1  2  1  0
  2  3  1  0
  2  4  1  0
  2  5  1  0
  5  6  1  0
  5  7  1  0
  7  8  2  0
  7  9  2  0
  7 10  1  0
 10 11  2  0
 11 12  1  0
 12 13  2  0
 13 14  1  0
 14 15  2  0
 15 16  1  0
 15 10  1  0
M  ISO  3   1   2   3   2   4   2
M  END
>  <inchikey>  (4) 
HKJYKZQQIJTREK-UHFFFAOYSA-N

>  <tags>  (4) 
fragmenstein_placed,CpKRS_FrAncestor_bulkdock_iter2

>  <ref_pdb>  (4) 
x0540b

>  <energy_score>  (4) 
-32.576398

>  <distance_score>  (4) 
0.198457

>  <HIPPO Pose ID>  (4) 
52547

>  <ref_mols>  (4) 
x0639c

>  <smiles>  (4) 
[2H]C([2H])([2H])N(C)S(=O)(=O)c1ccccc1Cl

>  <HIPPO Compound ID>  (4) 
447490

>  <alias>  (4) 
HKJYKZQQIJTREK-FIBGUPNXSA-N-P54

>  <subsites>  (4) 


>  <placement_batch>  (4) 
CpKRS_FrAncestor_bulkdock_iter2

>  <name>  (4) 
HKJYKZQQIJTREK-FIBGUPNXSA-N-P54

$$$$
IGJZFKODGSWBBQ-BMSJAHLVSA-N-P54
     RDKit          3D

 16 16  0  0  0  0  0  0  0  0999 V2000
    7.2652  -38.3585    6.9849 H   0  0  0  0  0  0  0  0  0  0  0  0
    6.7358  -38.0412    7.8895 C   0  0  0  0  0  0  0  0  0  0  0  0
    6.9423  -38.7928    8.6554 H   0  0  0  0  0  0  0  0  0  0  0  0
    5.6636  -38.0218    7.6728 H   0  0  0  0  0  0  0  0  0  0  0  0
    7.2210  -36.7079    8.3082 N   0  0  0  0  0  0  0  0  0  0  0  0
    7.0926  -35.7130    7.2194 C   0  0  0  0  0  0  0  0  0  0  0  0
    6.6059  -36.1501    9.7966 S   0  0  0  0  0  0  0  0  0  0  0  0
    7.1941  -34.8611   10.1055 O   0  0  0  0  0  0  0  0  0  0  0  0
    5.1642  -36.2926    9.7538 O   0  0  0  0  0  0  0  0  0  0  0  0
    7.2504  -37.3155   10.9868 C   0  0  0  0  0  0  0  0  0  0  0  0
    6.3304  -38.1458   11.6488 C   0  0  0  0  0  0  0  0  0  0  0  0
    6.7579  -38.9793   12.6791 C   0  0  0  0  0  0  0  0  0  0  0  0
    8.0969  -38.9812   13.0552 C   0  0  0  0  0  0  0  0  0  0  0  0
    9.0152  -38.1638   12.3934 C   0  0  0  0  0  0  0  0  0  0  0  0
    8.6136  -37.3235   11.3422 C   0  0  0  0  0  0  0  0  0  0  0  0
    9.6447  -36.4319   10.7086 C   0  0  0  0  0  0  0  0  0  0  0  0
  1  2  1  0
  2  3  1  0
  2  4  1  0
  2  5  1  0
  5  6  1  0
  5  7  1  0
  7  8  2  0
  7  9  2  0
  7 10  1  0
 10 11  2  0
 11 12  1  0
 12 13  2  0
 13 14  1  0
 14 15  2  0
 15 16  1  0
 15 10  1  0
M  ISO  3   1   2   3   2   4   2
M  END
>  <inchikey>  (5) 
IGJZFKODGSWBBQ-UHFFFAOYSA-N

>  <tags>  (5) 
fragmenstein_placed,CpKRS_FrAncestor_bulkdock_iter2

>  <ref_pdb>  (5) 
x0540b

>  <energy_score>  (5) 
-33.085463

>  <distance_score>  (5) 
0.203909

>  <HIPPO Pose ID>  (5) 
52550

>  <ref_mols>  (5) 
x0639c

>  <smiles>  (5) 
[2H]C([2H])([2H])N(C)S(=O)(=O)c1ccccc1C

>  <HIPPO Compound ID>  (5) 
447491

>  <alias>  (5) 
IGJZFKODGSWBBQ-BMSJAHLVSA-N-P54

>  <subsites>  (5) 


>  <placement_batch>  (5) 
CpKRS_FrAncestor_bulkdock_iter2

>  <name>  (5) 
IGJZFKODGSWBBQ-BMSJAHLVSA-N-P54

$$$$
BMFZKBUDQUCZNE-BMSJAHLVSA-N-P40
     RDKit          3D

 14 14  0  0  0  0  0  0  0  0999 V2000
    5.8418   -7.2691   22.7975 H   0  0  0  0  0  0  0  0  0  0  0  0
    5.5449   -8.2961   22.5715 C   0  0  0  0  0  0  0  0  0  0  0  0
    4.6837   -8.2494   21.8961 H   0  0  0  0  0  0  0  0  0  0  0  0
    6.3890   -8.7984   22.0897 H   0  0  0  0  0  0  0  0  0  0  0  0
    5.1957   -8.9199   23.8029 O   0  0  0  0  0  0  0  0  0  0  0  0
    4.9434  -10.2664   23.6513 C   0  0  0  0  0  0  0  0  0  0  0  0
    4.8250  -11.0193   24.8102 C   0  0  0  0  0  0  0  0  0  0  0  0
    4.5359  -12.3833   24.6979 C   0  0  0  0  0  0  0  0  0  0  0  0
    4.3781  -13.2490   25.9246 C   0  0  0  0  0  0  0  0  0  0  0  0
    3.0462  -13.8539   26.0113 N   0  0  0  0  0  0  0  0  0  0  0  0
    3.0649  -15.2693   25.6618 C   0  0  0  0  0  0  0  0  0  0  0  0
    4.4046  -12.9202   23.4154 C   0  0  0  0  0  0  0  0  0  0  0  0
    4.5263  -12.0822   22.3232 C   0  0  0  0  0  0  0  0  0  0  0  0
    4.7708  -10.7612   22.4112 N   0  0  0  0  0  0  0  0  0  0  0  0
  1  2  1  0
  2  3  1  0
  2  4  1  0
  2  5  1  0
  5  6  1  0
  6  7  2  0
  7  8  1  0
  8  9  1  0
  9 10  1  0
 10 11  1  0
  8 12  2  0
 12 13  1  0
 13 14  2  0
 14  6  1  0
M  ISO  3   1   2   3   2   4   2
M  END
>  <inchikey>  (6) 
BMFZKBUDQUCZNE-UHFFFAOYSA-N

>  <tags>  (6) 
fragmenstein_placed,CpKRS_FrAncestor_bulkdock_iter2

>  <ref_pdb>  (6) 
x0540b

>  <energy_score>  (6) 
-62.606553

>  <distance_score>  (6) 
0.412741

>  <HIPPO Pose ID>  (6) 
52565

>  <ref_mols>  (6) 
x0602b

>  <smiles>  (6) 
[2H]C([2H])([2H])Oc1cc(CNC)ccn1

>  <HIPPO Compound ID>  (6) 
447493

>  <alias>  (6) 
BMFZKBUDQUCZNE-BMSJAHLVSA-N-P40

>  <subsites>  (6) 


>  <placement_batch>  (6) 
CpKRS_FrAncestor_bulkdock_iter2

>  <name>  (6) 
BMFZKBUDQUCZNE-BMSJAHLVSA-N-P40

$$$$
UQAHBOKPZNLKRF-FIBGUPNXSA-N-P40
     RDKit          3D

 13 13  0  0  0  0  0  0  0  0999 V2000
    6.5519   -7.4392   24.4829 H   0  0  0  0  0  0  0  0  0  0  0  0
    6.1455   -8.4113   24.7791 C   0  0  0  0  0  0  0  0  0  0  0  0
    5.5987   -8.2732   25.7173 H   0  0  0  0  0  0  0  0  0  0  0  0
    6.9870   -9.0968   24.9211 H   0  0  0  0  0  0  0  0  0  0  0  0
    5.2626   -8.8465   23.7529 O   0  0  0  0  0  0  0  0  0  0  0  0
    5.0103  -10.1903   23.7433 C   0  0  0  0  0  0  0  0  0  0  0  0
    4.8969  -10.9680   24.8898 C   0  0  0  0  0  0  0  0  0  0  0  0
    4.6051  -12.3323   24.7606 C   0  0  0  0  0  0  0  0  0  0  0  0
    4.4646  -13.2117   25.9709 C   0  0  0  0  0  0  0  0  0  0  0  0
    3.0683  -13.5613   26.2040 N   0  0  0  0  0  0  0  0  0  0  0  0
    4.4256  -12.8540   23.4787 C   0  0  0  0  0  0  0  0  0  0  0  0
    4.5403  -11.9994   22.3988 C   0  0  0  0  0  0  0  0  0  0  0  0
    4.8141  -10.6813   22.5056 N   0  0  0  0  0  0  0  0  0  0  0  0
  1  2  1  0
  2  3  1  0
  2  4  1  0
  2  5  1  0
  5  6  1  0
  6  7  2  0
  7  8  1  0
  8  9  1  0
  9 10  1  0
  8 11  2  0
 11 12  1  0
 12 13  2  0
 13  6  1  0
M  ISO  3   1   2   3   2   4   2
M  END
>  <inchikey>  (7) 
UQAHBOKPZNLKRF-UHFFFAOYSA-N

>  <tags>  (7) 
fragmenstein_placed,CpKRS_FrAncestor_bulkdock_iter2

>  <ref_pdb>  (7) 
x0540b

>  <energy_score>  (7) 
-1.999081

>  <distance_score>  (7) 
0.517054

>  <HIPPO Pose ID>  (7) 
52567

>  <ref_mols>  (7) 
x0602b

>  <smiles>  (7) 
[2H]C([2H])([2H])Oc1cc(CN)ccn1

>  <HIPPO Compound ID>  (7) 
33335

>  <alias>  (7) 
UQAHBOKPZNLKRF-FIBGUPNXSA-N-P40

>  <subsites>  (7) 


>  <placement_batch>  (7) 
CpKRS_FrAncestor_bulkdock_iter2

>  <name>  (7) 
UQAHBOKPZNLKRF-FIBGUPNXSA-N-P40

$$$$
RYOQZXOVBJIUSX-BMSJAHLVSA-N-P51
     RDKit          3D

 14 14  0  0  0  0  0  0  0  0999 V2000
    5.0107  -12.2491   22.3753 H   0  0  0  0  0  0  0  0  0  0  0  0
    4.3003  -12.5612   23.1474 C   0  0  0  0  0  0  0  0  0  0  0  0
    3.8921  -11.6549   23.6067 H   0  0  0  0  0  0  0  0  0  0  0  0
    3.5140  -13.1403   22.6548 H   0  0  0  0  0  0  0  0  0  0  0  0
    5.0073  -13.3389   24.0984 O   0  0  0  0  0  0  0  0  0  0  0  0
    4.2858  -13.8982   25.1129 C   0  0  0  0  0  0  0  0  0  0  0  0
    2.9347  -13.6780   25.3460 C   0  0  0  0  0  0  0  0  0  0  0  0
    2.3263  -14.2777   26.4528 C   0  0  0  0  0  0  0  0  0  0  0  0
    3.0800  -15.0859   27.3005 C   0  0  0  0  0  0  0  0  0  0  0  0
    2.5632  -15.6957   28.5559 C   0  0  0  0  0  0  0  0  0  0  0  0
    1.2627  -15.2161   29.1411 C   0  0  0  0  0  0  0  0  0  0  0  0
    3.2249  -16.5396   29.1609 O   0  0  0  0  0  0  0  0  0  0  0  0
    4.4154  -15.2686   26.9727 C   0  0  0  0  0  0  0  0  0  0  0  0
    5.0340  -14.6873   25.9135 N   0  0  0  0  0  0  0  0  0  0  0  0
  1  2  1  0
  2  3  1  0
  2  4  1  0
  2  5  1  0
  5  6  1  0
  6  7  2  0
  7  8  1  0
  8  9  2  0
  9 10  1  0
 10 11  1  0
 10 12  2  0
  9 13  1  0
 13 14  2  0
 14  6  1  0
M  ISO  3   1   2   3   2   4   2
M  END
>  <inchikey>  (8) 
RYOQZXOVBJIUSX-UHFFFAOYSA-N

>  <tags>  (8) 
fragmenstein_placed,CpKRS_FrAncestor_bulkdock_iter2

>  <ref_pdb>  (8) 
x0540b

>  <energy_score>  (8) 
-0.849656

>  <distance_score>  (8) 
0.594647

>  <HIPPO Pose ID>  (8) 
52569

>  <ref_mols>  (8) 
x0634b

>  <smiles>  (8) 
[2H]C([2H])([2H])Oc1ccc(C(C)=O)cn1

>  <HIPPO Compound ID>  (8) 
33149

>  <alias>  (8) 
RYOQZXOVBJIUSX-BMSJAHLVSA-N-P51

>  <subsites>  (8) 


>  <placement_batch>  (8) 
CpKRS_FrAncestor_bulkdock_iter2

>  <name>  (8) 
RYOQZXOVBJIUSX-BMSJAHLVSA-N-P51

$$$$
VWBCUYWPDAPXRV-BMSJAHLVSA-N-P51
     RDKit          3D

 15 15  0  0  0  0  0  0  0  0999 V2000
    3.8132  -11.7050   23.7436 H   0  0  0  0  0  0  0  0  0  0  0  0
    4.1605  -12.6352   23.2819 C   0  0  0  0  0  0  0  0  0  0  0  0
    3.3271  -13.1826   22.8331 H   0  0  0  0  0  0  0  0  0  0  0  0
    4.8512  -12.3674   22.4761 H   0  0  0  0  0  0  0  0  0  0  0  0
    4.8704  -13.4282   24.2172 O   0  0  0  0  0  0  0  0  0  0  0  0
    4.1626  -13.9693   25.2517 C   0  0  0  0  0  0  0  0  0  0  0  0
    2.8311  -13.6923   25.5489 C   0  0  0  0  0  0  0  0  0  0  0  0
    2.2280  -14.2541   26.6939 C   0  0  0  0  0  0  0  0  0  0  0  0
    0.8118  -13.8825   27.0060 C   0  0  0  0  0  0  0  0  0  0  0  0
    3.0082  -15.0791   27.5138 C   0  0  0  0  0  0  0  0  0  0  0  0
    2.6262  -15.6454   28.8309 C   0  0  0  0  0  0  0  0  0  0  0  0
    3.1116  -16.6434   29.3359 O   0  0  0  0  0  0  0  0  0  0  0  0
    1.7343  -14.9050   29.5187 O   0  0  0  0  0  0  0  0  0  0  0  0
    4.3146  -15.3299   27.1079 C   0  0  0  0  0  0  0  0  0  0  0  0
    4.9104  -14.7881   26.0177 N   0  0  0  0  0  0  0  0  0  0  0  0
  1  2  1  0
  2  3  1  0
  2  4  1  0
  2  5  1  0
  5  6  1  0
  6  7  2  0
  7  8  1  0
  8  9  1  0
  8 10  2  0
 10 11  1  0
 11 12  2  0
 11 13  1  0
 10 14  1  0
 14 15  2  0
 15  6  1  0
M  ISO  3   1   2   3   2   4   2
M  END
>  <inchikey>  (9) 
VWBCUYWPDAPXRV-UHFFFAOYSA-N

>  <tags>  (9) 
fragmenstein_placed,CpKRS_FrAncestor_bulkdock_iter2

>  <ref_pdb>  (9) 
x0540b

>  <energy_score>  (9) 
-12.915874

>  <distance_score>  (9) 
0.467083

>  <HIPPO Pose ID>  (9) 
52571

>  <ref_mols>  (9) 
x0634b

>  <smiles>  (9) 
[2H]C([2H])([2H])Oc1cc(C)c(C(=O)O)cn1

>  <HIPPO Compound ID>  (9) 
33213

>  <alias>  (9) 
VWBCUYWPDAPXRV-BMSJAHLVSA-N-P51

>  <subsites>  (9) 


>  <placement_batch>  (9) 
CpKRS_FrAncestor_bulkdock_iter2

>  <name>  (9) 
VWBCUYWPDAPXRV-BMSJAHLVSA-N-P51

$$$$
DFPYAQAFVHRSAG-FIBGUPNXSA-N-P51
     RDKit          3D

 13 13  0  0  0  0  0  0  0  0999 V2000
    5.1342  -12.2643   22.1345 H   0  0  0  0  0  0  0  0  0  0  0  0
    4.3806  -12.5096   22.8895 C   0  0  0  0  0  0  0  0  0  0  0  0
    3.6295  -13.1437   22.4102 H   0  0  0  0  0  0  0  0  0  0  0  0
    3.9379  -11.5684   23.2315 H   0  0  0  0  0  0  0  0  0  0  0  0
    5.0346  -13.1768   23.9550 O   0  0  0  0  0  0  0  0  0  0  0  0
    4.2469  -13.7200   24.9256 C   0  0  0  0  0  0  0  0  0  0  0  0
    2.8908  -13.4594   25.0809 C   0  0  0  0  0  0  0  0  0  0  0  0
    2.2122  -14.0443   26.1473 C   0  0  0  0  0  0  0  0  0  0  0  0
    2.9052  -14.8727   27.0239 C   0  0  0  0  0  0  0  0  0  0  0  0
    2.2533  -15.4318   28.1594 C   0  0  0  0  0  0  0  0  0  0  0  0
    1.6705  -15.8331   29.0790 N   0  0  0  0  0  0  0  0  0  0  0  0
    4.2510  -15.0875   26.7892 C   0  0  0  0  0  0  0  0  0  0  0  0
    4.9366  -14.5199   25.7707 N   0  0  0  0  0  0  0  0  0  0  0  0
  1  2  1  0
  2  3  1  0
  2  4  1  0
  2  5  1  0
  5  6  1  0
  6  7  2  0
  7  8  1  0
  8  9  2  0
  9 10  1  0
 10 11  3  0
  9 12  1  0
 12 13  2  0
 13  6  1  0
M  ISO  3   1   2   3   2   4   2
M  END
>  <inchikey>  (10) 
DFPYAQAFVHRSAG-UHFFFAOYSA-N

>  <tags>  (10) 
fragmenstein_placed,CpKRS_FrAncestor_bulkdock_iter2

>  <ref_pdb>  (10) 
x0540b

>  <energy_score>  (10) 
-2.111849

>  <distance_score>  (10) 
0.400009

>  <HIPPO Pose ID>  (10) 
52573

>  <ref_mols>  (10) 
x0634b

>  <smiles>  (10) 
[2H]C([2H])([2H])Oc1ccc(C#N)cn1

>  <HIPPO Compound ID>  (10) 
33122

>  <alias>  (10) 
DFPYAQAFVHRSAG-FIBGUPNXSA-N-P51

>  <subsites>  (10) 


>  <placement_batch>  (10) 
CpKRS_FrAncestor_bulkdock_iter2

>  <name>  (10) 
DFPYAQAFVHRSAG-FIBGUPNXSA-N-P51

$$$$
AUOIYQDHPOAYQZ-FIBGUPNXSA-N-P51
     RDKit          3D

 13 13  0  0  0  0  0  0  0  0999 V2000
    3.7626  -11.5453   23.4043 H   0  0  0  0  0  0  0  0  0  0  0  0
    4.2379  -12.4390   22.9867 C   0  0  0  0  0  0  0  0  0  0  0  0
    4.9496  -12.1077   22.2238 H   0  0  0  0  0  0  0  0  0  0  0  0
    3.5024  -13.0801   22.4923 H   0  0  0  0  0  0  0  0  0  0  0  0
    4.9633  -13.1405   23.9806 O   0  0  0  0  0  0  0  0  0  0  0  0
    4.2402  -13.7358   24.9734 C   0  0  0  0  0  0  0  0  0  0  0  0
    2.8758  -13.5715   25.1767 C   0  0  0  0  0  0  0  0  0  0  0  0
    2.2683  -14.2285   26.2466 C   0  0  0  0  0  0  0  0  0  0  0  0
    3.0336  -15.0200   27.1003 C   0  0  0  0  0  0  0  0  0  0  0  0
    2.4562  -15.7791   28.2571 C   0  0  0  0  0  0  0  0  0  0  0  0
    1.3705  -15.0664   28.9378 N   0  0  0  0  0  0  0  0  0  0  0  0
    4.3858  -15.1342   26.7983 C   0  0  0  0  0  0  0  0  0  0  0  0
    5.0051  -14.5054   25.7759 N   0  0  0  0  0  0  0  0  0  0  0  0
  1  2  1  0
  2  3  1  0
  2  4  1  0
  2  5  1  0
  5  6  1  0
  6  7  2  0
  7  8  1  0
  8  9  2  0
  9 10  1  0
 10 11  1  0
  9 12  1  0
 12 13  2  0
 13  6  1  0
M  ISO  3   1   2   3   2   4   2
M  END
>  <inchikey>  (11) 
AUOIYQDHPOAYQZ-UHFFFAOYSA-N

>  <tags>  (11) 
fragmenstein_placed,CpKRS_FrAncestor_bulkdock_iter2

>  <ref_pdb>  (11) 
x0540b

>  <energy_score>  (11) 
-7.843702

>  <distance_score>  (11) 
0.588854

>  <HIPPO Pose ID>  (11) 
52575

>  <ref_mols>  (11) 
x0634b

>  <smiles>  (11) 
[2H]C([2H])([2H])Oc1ccc(CN)cn1

>  <HIPPO Compound ID>  (11) 
33123

>  <alias>  (11) 
AUOIYQDHPOAYQZ-FIBGUPNXSA-N-P51

>  <subsites>  (11) 


>  <placement_batch>  (11) 
CpKRS_FrAncestor_bulkdock_iter2

>  <name>  (11) 
AUOIYQDHPOAYQZ-FIBGUPNXSA-N-P51

$$$$
YKTYUHMWNUVAAM-FIBGUPNXSA-N-P51
     RDKit          3D

 13 13  0  0  0  0  0  0  0  0999 V2000
    3.8934  -11.4990   23.3448 H   0  0  0  0  0  0  0  0  0  0  0  0
    4.2855  -12.4293   22.9209 C   0  0  0  0  0  0  0  0  0  0  0  0
    3.4838  -13.0285   22.4789 H   0  0  0  0  0  0  0  0  0  0  0  0
    4.9750  -12.1586   22.1149 H   0  0  0  0  0  0  0  0  0  0  0  0
    5.0169  -13.1601   23.8891 O   0  0  0  0  0  0  0  0  0  0  0  0
    4.3081  -13.7067   24.9187 C   0  0  0  0  0  0  0  0  0  0  0  0
    2.9736  -13.4437   25.1905 C   0  0  0  0  0  0  0  0  0  0  0  0
    2.3769  -14.0523   26.2933 C   0  0  0  0  0  0  0  0  0  0  0  0
    3.1175  -14.9187   27.0967 C   0  0  0  0  0  0  0  0  0  0  0  0
    2.5812  -15.6347   28.3003 C   0  0  0  0  0  0  0  0  0  0  0  0
    1.2828  -15.1943   28.6809 O   0  0  0  0  0  0  0  0  0  0  0  0
    4.4456  -15.1157   26.7367 C   0  0  0  0  0  0  0  0  0  0  0  0
    5.0562  -14.5245   25.6876 N   0  0  0  0  0  0  0  0  0  0  0  0
  1  2  1  0
  2  3  1  0
  2  4  1  0
  2  5  1  0
  5  6  1  0
  6  7  2  0
  7  8  1  0
  8  9  2  0
  9 10  1  0
 10 11  1  0
  9 12  1  0
 12 13  2  0
 13  6  1  0
M  ISO  3   1   2   3   2   4   2
M  END
>  <inchikey>  (12) 
YKTYUHMWNUVAAM-UHFFFAOYSA-N

>  <tags>  (12) 
fragmenstein_placed,CpKRS_FrAncestor_bulkdock_iter2

>  <ref_pdb>  (12) 
x0540b

>  <energy_score>  (12) 
-4.94624

>  <distance_score>  (12) 
0.32013

>  <HIPPO Pose ID>  (12) 
52577

>  <ref_mols>  (12) 
x0634b

>  <smiles>  (12) 
[2H]C([2H])([2H])Oc1ccc(CO)cn1

>  <HIPPO Compound ID>  (12) 
33264

>  <alias>  (12) 
YKTYUHMWNUVAAM-FIBGUPNXSA-N-P51

>  <subsites>  (12) 


>  <placement_batch>  (12) 
CpKRS_FrAncestor_bulkdock_iter2

>  <name>  (12) 
YKTYUHMWNUVAAM-FIBGUPNXSA-N-P51

$$$$
CTAIEPPAOULMFY-FIBGUPNXSA-N-P51
     RDKit          3D

 13 13  0  0  0  0  0  0  0  0999 V2000
    4.9965  -12.2991   22.3567 H   0  0  0  0  0  0  0  0  0  0  0  0
    4.2818  -12.6052   23.1271 C   0  0  0  0  0  0  0  0  0  0  0  0
    3.8080  -11.6986   23.5176 H   0  0  0  0  0  0  0  0  0  0  0  0
    3.5446  -13.2568   22.6515 H   0  0  0  0  0  0  0  0  0  0  0  0
    5.0028  -13.2762   24.1464 O   0  0  0  0  0  0  0  0  0  0  0  0
    4.2789  -13.8779   25.1345 C   0  0  0  0  0  0  0  0  0  0  0  0
    2.9155  -13.6970   25.3447 C   0  0  0  0  0  0  0  0  0  0  0  0
    2.3064  -14.3322   26.4283 C   0  0  0  0  0  0  0  0  0  0  0  0
    3.0805  -15.1279   27.2656 C   0  0  0  0  0  0  0  0  0  0  0  0
    2.4882  -15.7573   28.4553 C   0  0  0  0  0  0  0  0  0  0  0  0
    3.1203  -16.4656   29.2299 O   0  0  0  0  0  0  0  0  0  0  0  0
    4.4257  -15.2664   26.9804 C   0  0  0  0  0  0  0  0  0  0  0  0
    5.0408  -14.6518   25.9415 N   0  0  0  0  0  0  0  0  0  0  0  0
  1  2  1  0
  2  3  1  0
  2  4  1  0
  2  5  1  0
  5  6  1  0
  6  7  2  0
  7  8  1  0
  8  9  2  0
  9 10  1  0
 10 11  2  0
  9 12  1  0
 12 13  2  0
 13  6  1  0
M  ISO  3   1   2   3   2   4   2
M  END
>  <inchikey>  (13) 
CTAIEPPAOULMFY-UHFFFAOYSA-N

>  <tags>  (13) 
fragmenstein_placed,CpKRS_FrAncestor_bulkdock_iter2

>  <ref_pdb>  (13) 
x0540b

>  <energy_score>  (13) 
-0.726897

>  <distance_score>  (13) 
0.294916

>  <HIPPO Pose ID>  (13) 
52579

>  <ref_mols>  (13) 
x0634b

>  <smiles>  (13) 
[2H]C([2H])([2H])Oc1ccc(C=O)cn1

>  <HIPPO Compound ID>  (13) 
33263

>  <alias>  (13) 
CTAIEPPAOULMFY-FIBGUPNXSA-N-P51

>  <subsites>  (13) 


>  <placement_batch>  (13) 
CpKRS_FrAncestor_bulkdock_iter2

>  <name>  (13) 
CTAIEPPAOULMFY-FIBGUPNXSA-N-P51

$$$$
NVDJVEQITUWZDT-FIBGUPNXSA-N-P50
     RDKit          3D

 14 14  0  0  0  0  0  0  0  0999 V2000
    2.2537  -11.7157   24.3698 H   0  0  0  0  0  0  0  0  0  0  0  0
    2.0203  -12.5076   23.6490 C   0  0  0  0  0  0  0  0  0  0  0  0
    0.9458  -12.7175   23.6338 H   0  0  0  0  0  0  0  0  0  0  0  0
    2.3105  -12.1465   22.6594 H   0  0  0  0  0  0  0  0  0  0  0  0
    2.7635  -13.6911   23.9061 O   0  0  0  0  0  0  0  0  0  0  0  0
    2.6537  -14.1386   25.2022 C   0  0  0  0  0  0  0  0  0  0  0  0
    3.5800  -15.0916   25.5968 C   0  0  0  0  0  0  0  0  0  0  0  0
    3.5285  -15.5674   26.8998 C   0  0  0  0  0  0  0  0  0  0  0  0
    2.5434  -15.0839   27.7572 C   0  0  0  0  0  0  0  0  0  0  0  0
    2.4996  -15.5668   29.1436 C   0  0  0  0  0  0  0  0  0  0  0  0
    3.1925  -16.4656   29.5857 O   0  0  0  0  0  0  0  0  0  0  0  0
    1.6085  -14.9141   29.9076 O   0  0  0  0  0  0  0  0  0  0  0  0
    1.6423  -14.1518   27.2629 C   0  0  0  0  0  0  0  0  0  0  0  0
    1.6658  -13.6718   25.9964 N   0  0  0  0  0  0  0  0  0  0  0  0
  1  2  1  0
  2  3  1  0
  2  4  1  0
  2  5  1  0
  5  6  1  0
  6  7  2  0
  7  8  1  0
  8  9  2  0
  9 10  1  0
 10 11  2  0
 10 12  1  0
  9 13  1  0
 13 14  2  0
 14  6  1  0
M  ISO  3   1   2   3   2   4   2
M  END
>  <inchikey>  (14) 
NVDJVEQITUWZDT-UHFFFAOYSA-N

>  <tags>  (14) 
fragmenstein_placed,CpKRS_FrAncestor_bulkdock_iter2

>  <ref_pdb>  (14) 
x0540b

>  <energy_score>  (14) 
-18.097296

>  <distance_score>  (14) 
0.69196

>  <HIPPO Pose ID>  (14) 
52580

>  <ref_mols>  (14) 
x0634a

>  <smiles>  (14) 
[2H]C([2H])([2H])Oc1ccc(C(=O)O)cn1

>  <HIPPO Compound ID>  (14) 
33289

>  <alias>  (14) 
NVDJVEQITUWZDT-FIBGUPNXSA-N-P50

>  <subsites>  (14) 


>  <placement_batch>  (14) 
CpKRS_FrAncestor_bulkdock_iter2

>  <name>  (14) 
NVDJVEQITUWZDT-FIBGUPNXSA-N-P50

$$$$
DJXODUDMVNYWSQ-BMSJAHLVSA-N-P51
     RDKit          3D

 14 14  0  0  0  0  0  0  0  0999 V2000
    5.4770  -11.7976   24.4317 H   0  0  0  0  0  0  0  0  0  0  0  0
    4.6514  -11.9264   23.7270 C   0  0  0  0  0  0  0  0  0  0  0  0
    3.8092  -11.2887   24.0151 H   0  0  0  0  0  0  0  0  0  0  0  0
    4.9979  -11.5968   22.7425 H   0  0  0  0  0  0  0  0  0  0  0  0
    4.2749  -13.2873   23.6242 O   0  0  0  0  0  0  0  0  0  0  0  0
    3.8307  -13.7476   24.8402 C   0  0  0  0  0  0  0  0  0  0  0  0
    4.7587  -14.3751   25.5927 N   0  0  0  0  0  0  0  0  0  0  0  0
    4.3042  -14.9686   26.7188 C   0  0  0  0  0  0  0  0  0  0  0  0
    2.9845  -14.9344   27.1651 C   0  0  0  0  0  0  0  0  0  0  0  0
    2.5966  -15.6642   28.4156 C   0  0  0  0  0  0  0  0  0  0  0  0
    1.4209  -15.1243   29.0189 O   0  0  0  0  0  0  0  0  0  0  0  0
    2.0647  -14.2579   26.3638 C   0  0  0  0  0  0  0  0  0  0  0  0
    2.4755  -13.6668   25.1634 C   0  0  0  0  0  0  0  0  0  0  0  0
    1.4780  -12.9711   24.2915 C   0  0  0  0  0  0  0  0  0  0  0  0
  1  2  1  0
  2  3  1  0
  2  4  1  0
  2  5  1  0
  5  6  1  0
  6  7  2  0
  7  8  1  0
  8  9  2  0
  9 10  1  0
 10 11  1  0
  9 12  1  0
 12 13  2  0
 13 14  1  0
 13  6  1  0
M  ISO  3   1   2   3   2   4   2
M  END
>  <inchikey>  (15) 
DJXODUDMVNYWSQ-UHFFFAOYSA-N

>  <tags>  (15) 
fragmenstein_placed,CpKRS_FrAncestor_bulkdock_iter2

>  <ref_pdb>  (15) 
x0540b

>  <energy_score>  (15) 
-10.278702

>  <distance_score>  (15) 
0.470433

>  <HIPPO Pose ID>  (15) 
52583

>  <ref_mols>  (15) 
x0634b

>  <smiles>  (15) 
[2H]C([2H])([2H])Oc1ncc(CO)cc1C

>  <HIPPO Compound ID>  (15) 
33585

>  <alias>  (15) 
DJXODUDMVNYWSQ-BMSJAHLVSA-N-P51

>  <subsites>  (15) 


>  <placement_batch>  (15) 
CpKRS_FrAncestor_bulkdock_iter2

>  <name>  (15) 
DJXODUDMVNYWSQ-BMSJAHLVSA-N-P51

$$$$
FUBFUAARMGZWPE-FIBGUPNXSA-N-P50
     RDKit          3D

 15 15  0  0  0  0  0  0  0  0999 V2000
    2.3610  -12.2694   22.5880 H   0  0  0  0  0  0  0  0  0  0  0  0
    2.0774  -12.5876   23.5941 C   0  0  0  0  0  0  0  0  0  0  0  0
    0.9870  -12.6817   23.6277 H   0  0  0  0  0  0  0  0  0  0  0  0
    2.4225  -11.8168   24.2920 H   0  0  0  0  0  0  0  0  0  0  0  0
    2.6978  -13.8439   23.8353 O   0  0  0  0  0  0  0  0  0  0  0  0
    2.5988  -14.2836   25.1359 C   0  0  0  0  0  0  0  0  0  0  0  0
    1.7933  -13.6088   25.9936 N   0  0  0  0  0  0  0  0  0  0  0  0
    1.7647  -14.0514   27.2734 C   0  0  0  0  0  0  0  0  0  0  0  0
    2.5022  -15.1296   27.7357 C   0  0  0  0  0  0  0  0  0  0  0  0
    2.4870  -15.5650   29.1369 C   0  0  0  0  0  0  0  0  0  0  0  0
    3.1423  -16.4947   29.5712 O   0  0  0  0  0  0  0  0  0  0  0  0
    1.6587  -14.8543   29.9177 O   0  0  0  0  0  0  0  0  0  0  0  0
    3.2836  -15.8336   26.8249 C   0  0  0  0  0  0  0  0  0  0  0  0
    3.3169  -15.4221   25.4996 C   0  0  0  0  0  0  0  0  0  0  0  0
    4.1573  -16.4026   24.3651 Cl  0  0  0  0  0  0  0  0  0  0  0  0
  1  2  1  0
  2  3  1  0
  2  4  1  0
  2  5  1  0
  5  6  1  0
  6  7  2  0
  7  8  1  0
  8  9  2  0
  9 10  1  0
 10 11  2  0
 10 12  1  0
  9 13  1  0
 13 14  2  0
 14 15  1  0
 14  6  1  0
M  ISO  3   1   2   3   2   4   2
M  END
>  <inchikey>  (16) 
FUBFUAARMGZWPE-UHFFFAOYSA-N

>  <tags>  (16) 
fragmenstein_placed,CpKRS_FrAncestor_bulkdock_iter2

>  <ref_pdb>  (16) 
x0540b

>  <energy_score>  (16) 
-16.749515

>  <distance_score>  (16) 
0.800723

>  <HIPPO Pose ID>  (16) 
52584

>  <ref_mols>  (16) 
x0634a

>  <smiles>  (16) 
[2H]C([2H])([2H])Oc1ncc(C(=O)O)cc1Cl

>  <HIPPO Compound ID>  (16) 
33594

>  <alias>  (16) 
FUBFUAARMGZWPE-FIBGUPNXSA-N-P50

>  <subsites>  (16) 


>  <placement_batch>  (16) 
CpKRS_FrAncestor_bulkdock_iter2

>  <name>  (16) 
FUBFUAARMGZWPE-FIBGUPNXSA-N-P50

$$$$
IXRKKRVKDVCDBK-UHFFFAOYSA-N-P60
     RDKit          3D

 17 18  0  0  0  0  0  0  0  0999 V2000
   -3.6599  -28.1141   25.6662 C   0  0  0  0  0  0  0  0  0  0  0  0
   -2.7120  -27.0728   25.1241 C   0  0  0  0  0  0  0  0  0  0  0  0
   -2.6744  -25.7997   25.7368 C   0  0  0  0  0  0  0  0  0  0  0  0
   -3.7636  -25.3821   27.2369 Br  0  0  0  0  0  0  0  0  0  0  0  0
   -1.8500  -24.7812   25.2568 C   0  0  0  0  0  0  0  0  0  0  0  0
   -1.0376  -25.0120   24.1567 C   0  0  0  0  0  0  0  0  0  0  0  0
   -1.0276  -26.2658   23.5566 C   0  0  0  0  0  0  0  0  0  0  0  0
   -1.8588  -27.3084   24.0185 C   0  0  0  0  0  0  0  0  0  0  0  0
   -1.7970  -28.6179   23.2508 C   0  0  0  0  0  0  0  0  0  0  0  0
   -0.4947  -29.3076   23.3289 N   0  0  0  0  0  0  0  0  0  0  0  0
   -0.5219  -30.5139   22.4620 C   0  0  0  0  0  0  0  0  0  0  0  0
   -0.9030  -31.8339   23.1683 C   0  0  0  0  0  0  0  0  0  0  0  0
   -1.7405  -31.5976   24.3030 O   0  0  0  0  0  0  0  0  0  0  0  0
   -1.0654  -30.8058   25.2987 C   0  0  0  0  0  0  0  0  0  0  0  0
   -0.1332  -29.7073   24.7152 C   0  0  1  0  0  0  0  0  0  0  0  0
    1.2775  -30.1929   24.7840 C   0  0  0  0  0  0  0  0  0  0  0  0
    2.3492  -30.6399   24.8246 N   0  0  0  0  0  0  0  0  0  0  0  0
  1  2  1  0
  2  3  2  0
  3  4  1  0
  3  5  1  0
  5  6  2  0
  6  7  1  0
  7  8  2  0
  8  9  1  0
  9 10  1  0
 10 11  1  0
 11 12  1  0
 12 13  1  0
 13 14  1  0
 14 15  1  0
 15 16  1  6
 16 17  3  0
  8  2  1  0
 15 10  1  0
M  END
>  <inchikey>  (17) 
IXRKKRVKDVCDBK-UHFFFAOYSA-N

>  <tags>  (17) 
fragmenstein_placed,CpKRS_FrAncestor_bulkdock_iter2

>  <ref_pdb>  (17) 
x0540b

>  <energy_score>  (17) 
-36.584281

>  <distance_score>  (17) 
0.5126

>  <HIPPO Pose ID>  (17) 
52587

>  <ref_mols>  (17) 
x0675b

>  <smiles>  (17) 
Cc1c(Br)cccc1CN1CCOCC1C#N

>  <HIPPO Compound ID>  (17) 
447494

>  <alias>  (17) 
IXRKKRVKDVCDBK-UHFFFAOYSA-N-P60

>  <subsites>  (17) 


>  <placement_batch>  (17) 
CpKRS_FrAncestor_bulkdock_iter2

>  <name>  (17) 
IXRKKRVKDVCDBK-UHFFFAOYSA-N-P60

$$$$
LSXIKASATZPBPB-UHFFFAOYSA-N-P60
     RDKit          3D

 16 17  0  0  0  0  0  0  0  0999 V2000
   -3.7946  -28.0062   25.4845 C   0  0  0  0  0  0  0  0  0  0  0  0
   -2.8313  -26.9450   25.0146 C   0  0  0  0  0  0  0  0  0  0  0  0
   -2.7968  -25.6935   25.6661 C   0  0  0  0  0  0  0  0  0  0  0  0
   -3.8911  -25.3147   27.1719 Br  0  0  0  0  0  0  0  0  0  0  0  0
   -1.9489  -24.6720   25.2357 C   0  0  0  0  0  0  0  0  0  0  0  0
   -1.0956  -24.8873   24.1632 C   0  0  0  0  0  0  0  0  0  0  0  0
   -1.0545  -26.1349   23.5526 C   0  0  0  0  0  0  0  0  0  0  0  0
   -1.9137  -27.1759   23.9589 C   0  0  0  0  0  0  0  0  0  0  0  0
   -1.7761  -28.4999   23.2254 C   0  0  0  0  0  0  0  0  0  0  0  0
   -0.5998  -29.2874   23.6369 N   0  0  0  0  0  0  0  0  0  0  0  0
   -0.6795  -29.7594   25.0295 C   0  0  0  0  0  0  0  0  0  0  0  0
   -1.5652  -31.0005   25.2217 C   0  0  0  0  0  0  0  0  0  0  0  0
   -1.2887  -32.0750   24.3152 O   0  0  0  0  0  0  0  0  0  0  0  0
   -0.1992  -31.7883   23.4317 C   0  0  0  0  0  0  0  0  0  0  0  0
   -0.4071  -30.4371   22.7101 C   0  0  2  0  0  0  0  0  0  0  0  0
    0.7835  -30.1334   21.8017 C   0  0  0  0  0  0  0  0  0  0  0  0
  1  2  1  0
  2  3  2  0
  3  4  1  0
  3  5  1  0
  5  6  2  0
  6  7  1  0
  7  8  2  0
  8  9  1  0
  9 10  1  0
 10 11  1  0
 11 12  1  0
 12 13  1  0
 13 14  1  0
 14 15  1  0
 15 16  1  1
  8  2  1  0
 15 10  1  0
M  END
>  <inchikey>  (18) 
LSXIKASATZPBPB-UHFFFAOYSA-N

>  <tags>  (18) 
fragmenstein_placed,CpKRS_FrAncestor_bulkdock_iter2

>  <ref_pdb>  (18) 
x0540b

>  <energy_score>  (18) 
-35.886476

>  <distance_score>  (18) 
0.421493

>  <HIPPO Pose ID>  (18) 
52589

>  <ref_mols>  (18) 
x0675b

>  <smiles>  (18) 
Cc1c(Br)cccc1CN1CCOCC1C

>  <HIPPO Compound ID>  (18) 
139899

>  <alias>  (18) 
LSXIKASATZPBPB-UHFFFAOYSA-N-P60

>  <subsites>  (18) 


>  <placement_batch>  (18) 
CpKRS_FrAncestor_bulkdock_iter2

>  <name>  (18) 
LSXIKASATZPBPB-UHFFFAOYSA-N-P60

$$$$
CLYFSSDDKCGTOM-UHFFFAOYSA-N-P60
     RDKit          3D

 15 16  0  0  0  0  0  0  0  0999 V2000
   -3.7911  -27.9757   25.5296 C   0  0  0  0  0  0  0  0  0  0  0  0
   -2.8196  -26.9271   25.0474 C   0  0  0  0  0  0  0  0  0  0  0  0
   -2.8011  -25.6651   25.6789 C   0  0  0  0  0  0  0  0  0  0  0  0
   -3.9336  -25.2703   27.1518 Br  0  0  0  0  0  0  0  0  0  0  0  0
   -1.9555  -24.6451   25.2429 C   0  0  0  0  0  0  0  0  0  0  0  0
   -1.0953  -24.8692   24.1777 C   0  0  0  0  0  0  0  0  0  0  0  0
   -1.0517  -26.1206   23.5744 C   0  0  0  0  0  0  0  0  0  0  0  0
   -1.9115  -27.1593   23.9844 C   0  0  0  0  0  0  0  0  0  0  0  0
   -1.7995  -28.4754   23.2356 C   0  0  0  0  0  0  0  0  0  0  0  0
   -0.6754  -29.3226   23.6677 N   0  0  0  0  0  0  0  0  0  0  0  0
   -0.5353  -30.4659   22.7301 C   0  0  0  0  0  0  0  0  0  0  0  0
   -0.1240  -31.7757   23.4191 C   0  0  0  0  0  0  0  0  0  0  0  0
   -1.0892  -32.1923   24.3954 O   0  0  0  0  0  0  0  0  0  0  0  0
   -1.6070  -31.1064   25.1748 C   0  0  0  0  0  0  0  0  0  0  0  0
   -0.7911  -29.8124   25.0529 C   0  0  0  0  0  0  0  0  0  0  0  0
  1  2  1  0
  2  3  2  0
  3  4  1  0
  3  5  1  0
  5  6  2  0
  6  7  1  0
  7  8  2  0
  8  9  1  0
  9 10  1  0
 10 11  1  0
 11 12  1  0
 12 13  1  0
 13 14  1  0
 14 15  1  0
  8  2  1  0
 15 10  1  0
M  END
>  <inchikey>  (19) 
CLYFSSDDKCGTOM-UHFFFAOYSA-N

>  <tags>  (19) 
fragmenstein_placed,CpKRS_FrAncestor_bulkdock_iter2

>  <ref_pdb>  (19) 
x0540b

>  <energy_score>  (19) 
-22.903599

>  <distance_score>  (19) 
0.455177

>  <HIPPO Pose ID>  (19) 
52591

>  <ref_mols>  (19) 
x0675b

>  <smiles>  (19) 
Cc1c(Br)cccc1CN1CCOCC1

>  <HIPPO Compound ID>  (19) 
324482

>  <alias>  (19) 
CLYFSSDDKCGTOM-UHFFFAOYSA-N-P60

>  <subsites>  (19) 


>  <placement_batch>  (19) 
CpKRS_FrAncestor_bulkdock_iter2

>  <name>  (19) 
CLYFSSDDKCGTOM-UHFFFAOYSA-N-P60

$$$$
REWJQZMDDHQQCI-UHFFFAOYSA-N-P21
     RDKit          3D

 14 14  0  0  0  0  0  0  0  0999 V2000
   25.3966    8.8515   25.0310 C   0  0  0  0  0  0  0  0  0  0  0  0
   24.9505    7.4466   25.3324 C   0  0  0  0  0  0  0  0  0  0  0  0
   25.6731    6.6001   26.1976 C   0  0  0  0  0  0  0  0  0  0  0  0
   27.2130    7.1667   27.1535 Br  0  0  0  0  0  0  0  0  0  0  0  0
   25.2739    5.2802   26.4131 C   0  0  0  0  0  0  0  0  0  0  0  0
   24.1468    4.7864   25.7750 C   0  0  0  0  0  0  0  0  0  0  0  0
   23.3927    5.6192   24.9527 C   0  0  0  0  0  0  0  0  0  0  0  0
   23.7621    6.9546   24.7353 C   0  0  0  0  0  0  0  0  0  0  0  0
   22.8632    7.8135   23.8655 C   0  0  0  0  0  0  0  0  0  0  0  0
   22.1911    8.7655   24.6762 O   0  0  0  0  0  0  0  0  0  0  0  0
   21.9041   10.2083   24.0008 S   0  0  0  0  0  0  0  0  0  0  0  0
   20.9106   10.9555   25.1206 N   0  0  0  0  0  0  0  0  0  0  0  0
   23.1435   10.9422   23.9566 O   0  0  0  0  0  0  0  0  0  0  0  0
   21.0959   10.0384   22.8186 O   0  0  0  0  0  0  0  0  0  0  0  0
  1  2  1  0
  2  3  2  0
  3  4  1  0
  3  5  1  0
  5  6  2  0
  6  7  1  0
  7  8  2  0
  8  9  1  0
  9 10  1  0
 10 11  1  0
 11 12  1  0
 11 13  2  0
 11 14  2  0
  8  2  1  0
M  END
>  <inchikey>  (20) 
REWJQZMDDHQQCI-UHFFFAOYSA-N

>  <tags>  (20) 
fragmenstein_placed,CpKRS_FrAncestor_bulkdock_iter2

>  <ref_pdb>  (20) 
x0540b

>  <energy_score>  (20) 
-22.491859

>  <distance_score>  (20) 
0.469119

>  <HIPPO Pose ID>  (20) 
52599

>  <ref_mols>  (20) 
x0472a

>  <smiles>  (20) 
Cc1c(Br)cccc1COS(N)(=O)=O

>  <HIPPO Compound ID>  (20) 
447496

>  <alias>  (20) 
REWJQZMDDHQQCI-UHFFFAOYSA-N-P21

>  <subsites>  (20) 


>  <placement_batch>  (20) 
CpKRS_FrAncestor_bulkdock_iter2

>  <name>  (20) 
REWJQZMDDHQQCI-UHFFFAOYSA-N-P21

$$$$
IZKNTCKTFCFTMJ-UHFFFAOYSA-N-P38
     RDKit          3D

 16 16  0  0  0  0  0  0  0  0999 V2000
    4.9162  -14.7168   26.1069 C   0  0  0  0  0  0  0  0  0  0  0  0
    3.4997  -14.2264   26.2178 C   0  0  0  0  0  0  0  0  0  0  0  0
    2.6597  -14.7762   27.2087 C   0  0  0  0  0  0  0  0  0  0  0  0
    3.2333  -16.0883   28.4598 Br  0  0  0  0  0  0  0  0  0  0  0  0
    1.3372  -14.3643   27.3436 C   0  0  0  0  0  0  0  0  0  0  0  0
    0.8013  -13.4475   26.4535 C   0  0  0  0  0  0  0  0  0  0  0  0
    1.5707  -12.9311   25.4082 C   0  0  0  0  0  0  0  0  0  0  0  0
    0.9549  -11.9420   24.6037 N   0  0  0  0  0  0  0  0  0  0  0  0
    2.9532  -13.2603   25.3260 C   0  0  0  0  0  0  0  0  0  0  0  0
    3.7997  -12.6231   24.2269 C   0  0  0  0  0  0  0  0  0  0  0  0
    4.5776  -13.2727   23.6560 O   0  0  0  0  0  0  0  0  0  0  0  0
    3.3676  -11.1623   24.0075 N   0  0  0  0  0  0  0  0  0  0  0  0
    3.7319  -10.2273   22.9838 C   0  0  0  0  0  0  0  0  0  0  0  0
    5.1733   -9.7463   23.0567 C   0  0  0  0  0  0  0  0  0  0  0  0
    5.5350   -9.0652   21.7408 C   0  0  0  0  0  0  0  0  0  0  0  0
    5.3934   -8.7852   24.2212 C   0  0  0  0  0  0  0  0  0  0  0  0
  1  2  1  0
  2  3  2  0
  3  4  1  0
  3  5  1  0
  5  6  2  0
  6  7  1  0
  7  8  1  0
  7  9  2  0
  9 10  1  0
 10 11  2  0
 10 12  1  0
 12 13  1  0
 13 14  1  0
 14 15  1  0
 14 16  1  0
  9  2  1  0
M  END
>  <inchikey>  (21) 
IZKNTCKTFCFTMJ-UHFFFAOYSA-N

>  <tags>  (21) 
fragmenstein_placed,CpKRS_FrAncestor_bulkdock_iter2

>  <ref_pdb>  (21) 
x0540b

>  <energy_score>  (21) 
-38.524089

>  <distance_score>  (21) 
0.697132

>  <HIPPO Pose ID>  (21) 
52602

>  <ref_mols>  (21) 
x0555a

>  <smiles>  (21) 
Cc1c(Br)ccc(N)c1C(=O)NCC(C)C

>  <HIPPO Compound ID>  (21) 
126327

>  <alias>  (21) 
IZKNTCKTFCFTMJ-UHFFFAOYSA-N-P38

>  <subsites>  (21) 


>  <placement_batch>  (21) 
CpKRS_FrAncestor_bulkdock_iter2

>  <name>  (21) 
IZKNTCKTFCFTMJ-UHFFFAOYSA-N-P38

$$$$
CNDLKIOGRZUWQI-UHFFFAOYSA-N-P38
     RDKit          3D

 16 16  0  0  0  0  0  0  0  0999 V2000
    4.8490  -15.3429   26.3933 C   0  0  0  0  0  0  0  0  0  0  0  0
    3.5742  -14.5409   26.3594 C   0  0  0  0  0  0  0  0  0  0  0  0
    2.5896  -14.8716   27.3145 C   0  0  0  0  0  0  0  0  0  0  0  0
    2.9323  -16.0870   28.7361 Br  0  0  0  0  0  0  0  0  0  0  0  0
    1.3335  -14.2757   27.3025 C   0  0  0  0  0  0  0  0  0  0  0  0
    1.0331  -13.3223   26.3446 C   0  0  0  0  0  0  0  0  0  0  0  0
    2.0159  -12.9148   25.4380 C   0  0  0  0  0  0  0  0  0  0  0  0
    1.6548  -11.9177   24.5620 O   0  0  0  0  0  0  0  0  0  0  0  0
    3.3147  -13.4839   25.4333 C   0  0  0  0  0  0  0  0  0  0  0  0
    4.4547  -12.9211   24.5589 C   0  0  0  0  0  0  0  0  0  0  0  0
    5.5396  -13.2139   24.8562 O   0  0  0  0  0  0  0  0  0  0  0  0
    3.9459  -11.9639   23.4742 N   0  0  0  0  0  0  0  0  0  0  0  0
    4.6591  -11.2364   22.4635 C   0  0  0  0  0  0  0  0  0  0  0  0
    4.5842   -9.7183   22.6757 C   0  0  0  0  0  0  0  0  0  0  0  0
    5.2027   -9.2739   24.0018 C   0  0  0  0  0  0  0  0  0  0  0  0
    5.2886   -9.0089   21.5256 C   0  0  0  0  0  0  0  0  0  0  0  0
  1  2  1  0
  2  3  2  0
  3  4  1  0
  3  5  1  0
  5  6  2  0
  6  7  1  0
  7  8  1  0
  7  9  2  0
  9 10  1  0
 10 11  2  0
 10 12  1  0
 12 13  1  0
 13 14  1  0
 14 15  1  0
 14 16  1  0
  9  2  1  0
M  END
>  <inchikey>  (22) 
CNDLKIOGRZUWQI-UHFFFAOYSA-N

>  <tags>  (22) 
fragmenstein_placed,CpKRS_FrAncestor_bulkdock_iter2

>  <ref_pdb>  (22) 
x0540b

>  <energy_score>  (22) 
-17.092803

>  <distance_score>  (22) 
0.408523

>  <HIPPO Pose ID>  (22) 
52603

>  <ref_mols>  (22) 
x0555a

>  <smiles>  (22) 
Cc1c(Br)ccc(O)c1C(=O)NCC(C)C

>  <HIPPO Compound ID>  (22) 
126294

>  <alias>  (22) 
CNDLKIOGRZUWQI-UHFFFAOYSA-N-P38

>  <subsites>  (22) 


>  <placement_batch>  (22) 
CpKRS_FrAncestor_bulkdock_iter2

>  <name>  (22) 
CNDLKIOGRZUWQI-UHFFFAOYSA-N-P38

$$$$
OJPKVYUOZLYJSY-UHFFFAOYSA-N-P54
     RDKit          3D

 12 12  0  0  0  0  0  0  0  0999 V2000
    9.6936  -36.3266   10.4590 C   0  0  0  0  0  0  0  0  0  0  0  0
    8.6910  -37.1462   11.2258 C   0  0  0  0  0  0  0  0  0  0  0  0
    9.0910  -37.8628   12.3739 C   0  0  0  0  0  0  0  0  0  0  0  0
   10.8711  -37.7914   13.0519 Br  0  0  0  0  0  0  0  0  0  0  0  0
    8.1834  -38.6468   13.0960 C   0  0  0  0  0  0  0  0  0  0  0  0
    6.8518  -38.7236   12.7048 C   0  0  0  0  0  0  0  0  0  0  0  0
    6.4178  -37.9951   11.6029 C   0  0  0  0  0  0  0  0  0  0  0  0
    7.3216  -37.1969   10.8775 C   0  0  0  0  0  0  0  0  0  0  0  0
    6.6311  -36.2177    9.5603 S   0  0  0  0  0  0  0  0  0  0  0  0
    7.1817  -34.6496    9.8815 N   0  0  0  0  0  0  0  0  0  0  0  0
    5.2006  -36.1224    9.7518 O   0  0  0  0  0  0  0  0  0  0  0  0
    7.2181  -36.6233    8.3079 O   0  0  0  0  0  0  0  0  0  0  0  0
  1  2  1  0
  2  3  2  0
  3  4  1  0
  3  5  1  0
  5  6  2  0
  6  7  1  0
  7  8  2  0
  8  9  1  0
  9 10  1  0
  9 11  2  0
  9 12  2  0
  8  2  1  0
M  END
>  <inchikey>  (23) 
OJPKVYUOZLYJSY-UHFFFAOYSA-N

>  <tags>  (23) 
fragmenstein_placed,CpKRS_FrAncestor_bulkdock_iter2

>  <ref_pdb>  (23) 
x0540b

>  <energy_score>  (23) 
-30.279908

>  <distance_score>  (23) 
0.231327

>  <HIPPO Pose ID>  (23) 
52606

>  <ref_mols>  (23) 
x0639c

>  <smiles>  (23) 
Cc1c(Br)cccc1S(N)(=O)=O

>  <HIPPO Compound ID>  (23) 
447497

>  <alias>  (23) 
OJPKVYUOZLYJSY-UHFFFAOYSA-N-P54

>  <subsites>  (23) 


>  <placement_batch>  (23) 
CpKRS_FrAncestor_bulkdock_iter2

>  <name>  (23) 
OJPKVYUOZLYJSY-UHFFFAOYSA-N-P54

$$$$
XECRCAQFCZJULX-UHFFFAOYSA-N-P54
     RDKit          3D

 15 15  0  0  0  0  0  0  0  0999 V2000
    9.6791  -36.3526   10.6582 C   0  0  0  0  0  0  0  0  0  0  0  0
    8.7170  -37.2680   11.3684 C   0  0  0  0  0  0  0  0  0  0  0  0
    9.1505  -38.0525   12.4572 C   0  0  0  0  0  0  0  0  0  0  0  0
   10.9389  -37.9935   13.1123 Br  0  0  0  0  0  0  0  0  0  0  0  0
    8.2688  -38.8988   13.1403 C   0  0  0  0  0  0  0  0  0  0  0  0
    6.9317  -38.9757   12.7673 C   0  0  0  0  0  0  0  0  0  0  0  0
    6.4649  -38.1867   11.7228 C   0  0  0  0  0  0  0  0  0  0  0  0
    7.3430  -37.3294   11.0360 C   0  0  0  0  0  0  0  0  0  0  0  0
    6.6061  -36.2110    9.8494 S   0  0  0  0  0  0  0  0  0  0  0  0
    7.1869  -34.9044   10.0792 O   0  0  0  0  0  0  0  0  0  0  0  0
    5.1708  -36.3896    9.8754 O   0  0  0  0  0  0  0  0  0  0  0  0
    7.1779  -36.7801    8.3929 N   0  0  0  0  0  0  0  0  0  0  0  0
    6.6463  -38.0120    7.8082 C   0  0  0  0  0  0  0  0  0  0  0  0
    7.8139  -38.8187    7.2513 C   0  0  0  0  0  0  0  0  0  0  0  0
    5.6530  -37.6563    6.7093 C   0  0  0  0  0  0  0  0  0  0  0  0
  1  2  1  0
  2  3  2  0
  3  4  1  0
  3  5  1  0
  5  6  2  0
  6  7  1  0
  7  8  2  0
  8  9  1  0
  9 10  2  0
  9 11  2  0
  9 12  1  0
 12 13  1  0
 13 14  1  0
 13 15  1  0
  8  2  1  0
M  END
>  <inchikey>  (24) 
XECRCAQFCZJULX-UHFFFAOYSA-N

>  <tags>  (24) 
fragmenstein_placed,CpKRS_FrAncestor_bulkdock_iter2

>  <ref_pdb>  (24) 
x0540b

>  <energy_score>  (24) 
-53.538308

>  <distance_score>  (24) 
0.203852

>  <HIPPO Pose ID>  (24) 
52609

>  <ref_mols>  (24) 
x0639c

>  <smiles>  (24) 
Cc1c(Br)cccc1S(=O)(=O)NC(C)C

>  <HIPPO Compound ID>  (24) 
312096

>  <alias>  (24) 
XECRCAQFCZJULX-UHFFFAOYSA-N-P54

>  <subsites>  (24) 


>  <placement_batch>  (24) 
CpKRS_FrAncestor_bulkdock_iter2

>  <name>  (24) 
XECRCAQFCZJULX-UHFFFAOYSA-N-P54

$$$$
MOUKJOPXFHAZIZ-JTQLQIEISA-N-P60
     RDKit          3D

 16 17  0  0  0  0  0  0  0  0999 V2000
   -3.7805  -27.9781   25.5312 C   0  0  0  0  0  0  0  0  0  0  0  0
   -2.8153  -26.9257   25.0444 C   0  0  0  0  0  0  0  0  0  0  0  0
   -2.7971  -25.6645   25.6774 C   0  0  0  0  0  0  0  0  0  0  0  0
   -3.9249  -25.2741   27.1550 Br  0  0  0  0  0  0  0  0  0  0  0  0
   -1.9548  -24.6424   25.2397 C   0  0  0  0  0  0  0  0  0  0  0  0
   -1.0978  -24.8633   24.1712 C   0  0  0  0  0  0  0  0  0  0  0  0
   -1.0548  -26.1135   23.5652 C   0  0  0  0  0  0  0  0  0  0  0  0
   -1.9113  -27.1541   23.9768 C   0  0  0  0  0  0  0  0  0  0  0  0
   -1.8000  -28.4695   23.2265 C   0  0  0  0  0  0  0  0  0  0  0  0
   -0.6737  -29.3169   23.6528 N   0  0  0  0  0  0  0  0  0  0  0  0
   -0.5532  -30.4720   22.7275 C   0  0  0  0  0  0  0  0  0  0  0  0
   -0.1179  -31.7694   23.4246 C   0  0  0  0  0  0  0  0  0  0  0  0
   -1.0530  -32.1817   24.4319 O   0  0  0  0  0  0  0  0  0  0  0  0
   -1.5920  -31.0867   25.1913 C   0  0  1  0  0  0  0  0  0  0  0  0
   -1.6646  -31.5291   26.6469 C   0  0  0  0  0  0  0  0  0  0  0  0
   -0.7703  -29.7900   25.0461 C   0  0  0  0  0  0  0  0  0  0  0  0
  1  2  1  0
  2  3  2  0
  3  4  1  0
  3  5  1  0
  5  6  2  0
  6  7  1  0
  7  8  2  0
  8  9  1  0
  9 10  1  0
 10 11  1  0
 11 12  1  0
 12 13  1  0
 13 14  1  0
 14 15  1  1
 14 16  1  0
  8  2  1  0
 16 10  1  0
M  END
>  <inchikey>  (25) 
MOUKJOPXFHAZIZ-UHFFFAOYSA-N

>  <tags>  (25) 
fragmenstein_placed,CpKRS_FrAncestor_bulkdock_iter2

>  <ref_pdb>  (25) 
x0540b

>  <energy_score>  (25) 
-19.695852

>  <distance_score>  (25) 
0.456701

>  <HIPPO Pose ID>  (25) 
52615

>  <ref_mols>  (25) 
x0675b

>  <smiles>  (25) 
Cc1c(Br)cccc1CN1CCO[C@@H](C)C1

>  <HIPPO Compound ID>  (25) 
139641

>  <alias>  (25) 
MOUKJOPXFHAZIZ-JTQLQIEISA-N-P60

>  <subsites>  (25) 


>  <placement_batch>  (25) 
CpKRS_FrAncestor_bulkdock_iter2

>  <name>  (25) 
MOUKJOPXFHAZIZ-JTQLQIEISA-N-P60

$$$$
VAQRZMXLDDVABI-UHFFFAOYSA-N-P13
     RDKit          3D

 16 17  0  0  0  0  0  0  0  0999 V2000
    1.9261  -15.5085   28.1162 C   0  0  0  0  0  0  0  0  0  0  0  0
    2.3182  -14.7331   26.9185 C   0  0  0  0  0  0  0  0  0  0  0  0
    3.5066  -14.6968   26.2299 C   0  0  0  0  0  0  0  0  0  0  0  0
    5.0308  -15.7233   26.5522 Br  0  0  0  0  0  0  0  0  0  0  0  0
    3.4078  -13.6448   25.2976 C   0  0  0  0  0  0  0  0  0  0  0  0
    4.4795  -13.1068   24.4378 C   0  0  0  0  0  0  0  0  0  0  0  0
    5.3533  -13.7792   24.0671 O   0  0  0  0  0  0  0  0  0  0  0  0
    4.2370  -11.6033   24.2585 N   0  0  0  0  0  0  0  0  0  0  0  0
    5.0574  -10.5967   23.6712 C   0  0  0  0  0  0  0  0  0  0  0  0
    4.6499   -9.1706   23.9945 C   0  0  0  0  0  0  0  0  0  0  0  0
    5.4747   -8.3798   22.9913 C   0  0  0  0  0  0  0  0  0  0  0  0
    5.4950   -9.2420   21.7305 C   0  0  0  0  0  0  0  0  0  0  0  0
    5.0460  -10.6376   22.1518 C   0  0  0  0  0  0  0  0  0  0  0  0
    2.1769  -13.0871   25.3496 N   0  0  0  0  0  0  0  0  0  0  0  0
    1.5257  -13.8258   26.2682 N   0  0  0  0  0  0  0  0  0  0  0  0
    0.1141  -13.6048   26.4616 C   0  0  0  0  0  0  0  0  0  0  0  0
  1  2  1  0
  2  3  2  0
  3  4  1  0
  3  5  1  0
  5  6  1  0
  6  7  2  0
  6  8  1  0
  8  9  1  0
  9 10  1  0
 10 11  1  0
 11 12  1  0
 12 13  1  0
  5 14  2  0
 14 15  1  0
 15 16  1  0
 15  2  1  0
 13  9  1  0
M  END
>  <inchikey>  (26) 
VAQRZMXLDDVABI-UHFFFAOYSA-N

>  <tags>  (26) 
fragmenstein_placed,CpKRS_FrAncestor_bulkdock_iter2

>  <ref_pdb>  (26) 
x0540b

>  <energy_score>  (26) 
-13.859038

>  <distance_score>  (26) 
0.301357

>  <HIPPO Pose ID>  (26) 
52618

>  <ref_mols>  (26) 
x0421c

>  <smiles>  (26) 
Cc1c(Br)c(C(=O)NC2CCCC2)nn1C

>  <HIPPO Compound ID>  (26) 
136251

>  <alias>  (26) 
VAQRZMXLDDVABI-UHFFFAOYSA-N-P13

>  <subsites>  (26) 


>  <placement_batch>  (26) 
CpKRS_FrAncestor_bulkdock_iter2

>  <name>  (26) 
VAQRZMXLDDVABI-UHFFFAOYSA-N-P13

$$$$
AFDGYRDNBSOYNV-UHFFFAOYSA-N-P20
     RDKit          3D

 16 17  0  0  0  0  0  0  0  0999 V2000
    5.3598    4.5042   40.8948 C   0  0  0  0  0  0  0  0  0  0  0  0
    4.8982    5.9227   41.0197 C   0  0  0  0  0  0  0  0  0  0  0  0
    5.3034    6.8957   40.1054 C   0  0  0  0  0  0  0  0  0  0  0  0
    6.1768    6.4573   38.5119 Br  0  0  0  0  0  0  0  0  0  0  0  0
    5.0173    8.2445   40.2766 C   0  0  0  0  0  0  0  0  0  0  0  0
    4.2788    8.6040   41.3705 C   0  0  0  0  0  0  0  0  0  0  0  0
    3.7999    7.7085   42.2457 N   0  0  0  0  0  0  0  0  0  0  0  0
    4.0464    6.3827   42.0174 C   0  0  0  0  0  0  0  0  0  0  0  0
    3.2916    5.4749   42.9633 C   0  0  0  0  0  0  0  0  0  0  0  0
    3.2918    4.3198   42.8120 O   0  0  0  0  0  0  0  0  0  0  0  0
    2.6484    6.3373   44.0664 N   0  0  0  0  0  0  0  0  0  0  0  0
    1.7929    5.9679   45.1597 C   0  0  2  0  0  0  0  0  0  0  0  0
    1.6320    7.1008   46.1486 C   0  0  0  0  0  0  0  0  0  0  0  0
    2.2845    4.6643   45.6965 C   0  0  0  0  0  0  0  0  0  0  0  0
    3.6218    4.5625   46.3463 C   0  0  0  0  0  0  0  0  0  0  0  0
    2.3747    4.2787   47.1433 C   0  0  0  0  0  0  0  0  0  0  0  0
  1  2  1  0
  2  3  2  0
  3  4  1  0
  3  5  1  0
  5  6  2  0
  6  7  1  0
  7  8  2  0
  8  9  1  0
  9 10  2  0
  9 11  1  0
 11 12  1  0
 12 13  1  1
 12 14  1  0
 14 15  1  0
 15 16  1  0
  8  2  1  0
 16 14  1  0
M  END
>  <inchikey>  (27) 
AFDGYRDNBSOYNV-UHFFFAOYSA-N

>  <tags>  (27) 
fragmenstein_placed,CpKRS_FrAncestor_bulkdock_iter2

>  <ref_pdb>  (27) 
x0540b

>  <energy_score>  (27) 
-7.628968

>  <distance_score>  (27) 
0.922349

>  <HIPPO Pose ID>  (27) 
52621

>  <ref_mols>  (27) 
x0456a

>  <smiles>  (27) 
Cc1c(Br)ccnc1C(=O)NC(C)C1CC1

>  <HIPPO Compound ID>  (27) 
121169

>  <alias>  (27) 
AFDGYRDNBSOYNV-UHFFFAOYSA-N-P20

>  <subsites>  (27) 


>  <placement_batch>  (27) 
CpKRS_FrAncestor_bulkdock_iter2

>  <name>  (27) 
AFDGYRDNBSOYNV-UHFFFAOYSA-N-P20

$$$$
JPDOHZORLOFMMC-UHFFFAOYSA-N-P22
     RDKit          3D

 13 13  0  0  0  0  0  0  0  0999 V2000
   22.5322    7.7069   24.1366 C   0  0  0  0  0  0  0  0  0  0  0  0
   23.7341    7.1946   24.8731 C   0  0  0  0  0  0  0  0  0  0  0  0
   23.7601    5.8499   25.2760 C   0  0  0  0  0  0  0  0  0  0  0  0
   24.8435    5.3472   25.9947 C   0  0  0  0  0  0  0  0  0  0  0  0
   24.8569    3.5417   26.5381 Br  0  0  0  0  0  0  0  0  0  0  0  0
   25.9212    6.1673   26.3137 C   0  0  0  0  0  0  0  0  0  0  0  0
   25.9272    7.4930   25.8786 C   0  0  0  0  0  0  0  0  0  0  0  0
   24.8512    7.9952   25.1384 C   0  0  0  0  0  0  0  0  0  0  0  0
   24.8939    9.3124   24.7527 O   0  0  0  0  0  0  0  0  0  0  0  0
   25.3328    9.6686   23.2218 S   0  0  0  0  0  0  0  0  0  0  0  0
   25.7055   11.3128   23.2852 N   0  0  0  0  0  0  0  0  0  0  0  0
   24.1910    9.6070   22.3362 O   0  0  0  0  0  0  0  0  0  0  0  0
   26.5945    9.0394   22.9019 O   0  0  0  0  0  0  0  0  0  0  0  0
  1  2  1  0
  2  3  2  0
  3  4  1  0
  4  5  1  0
  4  6  2  0
  6  7  1  0
  7  8  2  0
  8  9  1  0
  9 10  1  0
 10 11  1  0
 10 12  2  0
 10 13  2  0
  8  2  1  0
M  END
>  <inchikey>  (28) 
JPDOHZORLOFMMC-UHFFFAOYSA-N

>  <tags>  (28) 
fragmenstein_placed,CpKRS_FrAncestor_bulkdock_iter2

>  <ref_pdb>  (28) 
x0540b

>  <energy_score>  (28) 
-20.140982

>  <distance_score>  (28) 
0.684331

>  <HIPPO Pose ID>  (28) 
52628

>  <ref_mols>  (28) 
x0472b

>  <smiles>  (28) 
Cc1cc(Br)ccc1OS(N)(=O)=O

>  <HIPPO Compound ID>  (28) 
447500

>  <alias>  (28) 
JPDOHZORLOFMMC-UHFFFAOYSA-N-P22

>  <subsites>  (28) 


>  <placement_batch>  (28) 
CpKRS_FrAncestor_bulkdock_iter2

>  <name>  (28) 
JPDOHZORLOFMMC-UHFFFAOYSA-N-P22

$$$$
BTSVWIADDUQGGP-UHFFFAOYSA-N-P52
     RDKit          3D

 12 12  0  0  0  0  0  0  0  0999 V2000
   21.2682   10.5301   23.5103 C   0  0  0  0  0  0  0  0  0  0  0  0
   22.6741   10.0409   23.7066 C   0  0  0  0  0  0  0  0  0  0  0  0
   23.6896   10.6572   22.9505 C   0  0  0  0  0  0  0  0  0  0  0  0
   25.0278   10.2940   23.1019 C   0  0  0  0  0  0  0  0  0  0  0  0
   26.3553   11.1433   22.0594 Br  0  0  0  0  0  0  0  0  0  0  0  0
   25.3880    9.3065   24.0084 C   0  0  0  0  0  0  0  0  0  0  0  0
   24.4007    8.6806   24.7685 C   0  0  0  0  0  0  0  0  0  0  0  0
   23.0505    9.0468   24.6286 C   0  0  0  0  0  0  0  0  0  0  0  0
   21.8700    8.2547   25.7091 S   0  0  0  0  0  0  0  0  0  0  0  0
   20.9826    7.3046   24.6620 N   0  0  0  0  0  0  0  0  0  0  0  0
   20.9993    9.2729   26.2490 O   0  0  0  0  0  0  0  0  0  0  0  0
   22.6036    7.3594   26.5744 O   0  0  0  0  0  0  0  0  0  0  0  0
  1  2  1  0
  2  3  2  0
  3  4  1  0
  4  5  1  0
  4  6  2  0
  6  7  1  0
  7  8  2  0
  8  9  1  0
  9 10  1  0
  9 11  2  0
  9 12  2  0
  8  2  1  0
M  END
>  <inchikey>  (29) 
BTSVWIADDUQGGP-UHFFFAOYSA-N

>  <tags>  (29) 
fragmenstein_placed,CpKRS_FrAncestor_bulkdock_iter2

>  <ref_pdb>  (29) 
x0540b

>  <energy_score>  (29) 
-22.016085

>  <distance_score>  (29) 
0.31868

>  <HIPPO Pose ID>  (29) 
52630

>  <ref_mols>  (29) 
x0639a

>  <smiles>  (29) 
Cc1cc(Br)ccc1S(N)(=O)=O

>  <HIPPO Compound ID>  (29) 
447501

>  <alias>  (29) 
BTSVWIADDUQGGP-UHFFFAOYSA-N-P52

>  <subsites>  (29) 


>  <placement_batch>  (29) 
CpKRS_FrAncestor_bulkdock_iter2

>  <name>  (29) 
BTSVWIADDUQGGP-UHFFFAOYSA-N-P52

$$$$
KBJJPDUVRJOVJH-UHFFFAOYSA-N-P54
     RDKit          3D

 15 15  0  0  0  0  0  0  0  0999 V2000
    9.7023  -36.3610   10.6209 C   0  0  0  0  0  0  0  0  0  0  0  0
    8.7440  -37.3396   11.2393 C   0  0  0  0  0  0  0  0  0  0  0  0
    9.2555  -38.2919   12.1380 C   0  0  0  0  0  0  0  0  0  0  0  0
    8.4147  -39.2195   12.7545 C   0  0  0  0  0  0  0  0  0  0  0  0
    9.1636  -40.5684   13.8476 Br  0  0  0  0  0  0  0  0  0  0  0  0
    7.0426  -39.1918   12.5273 C   0  0  0  0  0  0  0  0  0  0  0  0
    6.5112  -38.2500   11.6467 C   0  0  0  0  0  0  0  0  0  0  0  0
    7.3573  -37.3396   10.9906 C   0  0  0  0  0  0  0  0  0  0  0  0
    6.6031  -36.1658    9.8746 S   0  0  0  0  0  0  0  0  0  0  0  0
    5.1679  -36.3388    9.9279 O   0  0  0  0  0  0  0  0  0  0  0  0
    7.2004  -34.8727   10.1336 O   0  0  0  0  0  0  0  0  0  0  0  0
    7.1386  -36.6841    8.3860 N   0  0  0  0  0  0  0  0  0  0  0  0
    6.6117  -37.9067    7.7793 C   0  0  0  0  0  0  0  0  0  0  0  0
    7.7810  -38.7017    7.2101 C   0  0  0  0  0  0  0  0  0  0  0  0
    5.6193  -37.5315    6.6860 C   0  0  0  0  0  0  0  0  0  0  0  0
  1  2  1  0
  2  3  2  0
  3  4  1  0
  4  5  1  0
  4  6  2  0
  6  7  1  0
  7  8  2  0
  8  9  1  0
  9 10  2  0
  9 11  2  0
  9 12  1  0
 12 13  1  0
 13 14  1  0
 13 15  1  0
  8  2  1  0
M  END
>  <inchikey>  (30) 
KBJJPDUVRJOVJH-UHFFFAOYSA-N

>  <tags>  (30) 
fragmenstein_placed,CpKRS_FrAncestor_bulkdock_iter2

>  <ref_pdb>  (30) 
x0540b

>  <energy_score>  (30) 
-40.711426

>  <distance_score>  (30) 
0.338741

>  <HIPPO Pose ID>  (30) 
52635

>  <ref_mols>  (30) 
x0639c

>  <smiles>  (30) 
Cc1cc(Br)ccc1S(=O)(=O)NC(C)C

>  <HIPPO Compound ID>  (30) 
312124

>  <alias>  (30) 
KBJJPDUVRJOVJH-UHFFFAOYSA-N-P54

>  <subsites>  (30) 


>  <placement_batch>  (30) 
CpKRS_FrAncestor_bulkdock_iter2

>  <name>  (30) 
KBJJPDUVRJOVJH-UHFFFAOYSA-N-P54

$$$$
LGVDQEUOMRYHBK-UHFFFAOYSA-N-P38
     RDKit          3D

 16 16  0  0  0  0  0  0  0  0999 V2000
   -0.4933  -13.2865   25.7882 C   0  0  0  0  0  0  0  0  0  0  0  0
    0.9728  -13.5270   26.0256 C   0  0  0  0  0  0  0  0  0  0  0  0
    1.3561  -14.4318   27.0248 C   0  0  0  0  0  0  0  0  0  0  0  0
    2.6793  -14.8324   27.1467 C   0  0  0  0  0  0  0  0  0  0  0  0
    3.1580  -16.0647   28.4929 Br  0  0  0  0  0  0  0  0  0  0  0  0
    3.6399  -14.3346   26.2812 C   0  0  0  0  0  0  0  0  0  0  0  0
    3.3037  -13.3682   25.3129 C   0  0  0  0  0  0  0  0  0  0  0  0
    4.4608  -12.8721   24.4618 C   0  0  0  0  0  0  0  0  0  0  0  0
    5.4983  -13.3718   24.6222 O   0  0  0  0  0  0  0  0  0  0  0  0
    4.0456  -11.7197   23.5428 N   0  0  0  0  0  0  0  0  0  0  0  0
    4.7942  -10.9993   22.5577 C   0  0  0  0  0  0  0  0  0  0  0  0
    4.7008   -9.4856   22.7497 C   0  0  0  0  0  0  0  0  0  0  0  0
    5.3957   -8.8000   21.5830 C   0  0  0  0  0  0  0  0  0  0  0  0
    5.3240   -9.0272   24.0678 C   0  0  0  0  0  0  0  0  0  0  0  0
    1.9604  -12.9178   25.2182 C   0  0  0  0  0  0  0  0  0  0  0  0
    1.5403  -12.0365   24.1806 N   0  0  0  0  0  0  0  0  0  0  0  0
  1  2  1  0
  2  3  2  0
  3  4  1  0
  4  5  1  0
  4  6  2  0
  6  7  1  0
  7  8  1  0
  8  9  2  0
  8 10  1  0
 10 11  1  0
 11 12  1  0
 12 13  1  0
 12 14  1  0
  7 15  2  0
 15 16  1  0
 15  2  1  0
M  END
>  <inchikey>  (31) 
LGVDQEUOMRYHBK-UHFFFAOYSA-N

>  <tags>  (31) 
fragmenstein_placed,CpKRS_FrAncestor_bulkdock_iter2

>  <ref_pdb>  (31) 
x0540b

>  <energy_score>  (31) 
-20.965113

>  <distance_score>  (31) 
0.383023

>  <HIPPO Pose ID>  (31) 
52636

>  <ref_mols>  (31) 
x0555a

>  <smiles>  (31) 
Cc1cc(Br)cc(C(=O)NCC(C)C)c1N

>  <HIPPO Compound ID>  (31) 
126247

>  <alias>  (31) 
LGVDQEUOMRYHBK-UHFFFAOYSA-N-P38

>  <subsites>  (31) 


>  <placement_batch>  (31) 
CpKRS_FrAncestor_bulkdock_iter2

>  <name>  (31) 
LGVDQEUOMRYHBK-UHFFFAOYSA-N-P38

$$$$
IMBCPPOKJQXRGV-UHFFFAOYSA-N-P59
     RDKit          3D

 15 16  0  0  0  0  0  0  0  0999 V2000
    7.0914  -20.5494   20.6483 C   0  0  0  0  0  0  0  0  0  0  0  0
    5.7378  -21.1181   20.8697 C   0  0  0  0  0  0  0  0  0  0  0  0
    4.8454  -20.3455   21.6032 C   0  0  0  0  0  0  0  0  0  0  0  0
    3.6712  -20.8941   22.0760 C   0  0  0  0  0  0  0  0  0  0  0  0
    2.6131  -19.8380   23.2103 Br  0  0  0  0  0  0  0  0  0  0  0  0
    3.3223  -22.1966   21.7418 C   0  0  0  0  0  0  0  0  0  0  0  0
    4.1903  -22.9763   20.9583 C   0  0  0  0  0  0  0  0  0  0  0  0
    3.8231  -24.4053   20.6518 C   0  0  0  0  0  0  0  0  0  0  0  0
    2.8046  -24.5120   19.6082 N   0  0  0  0  0  0  0  0  0  0  0  0
    2.2642  -25.8786   19.4988 C   0  0  0  0  0  0  0  0  0  0  0  0
    2.8535  -26.6646   18.3240 C   0  0  0  0  0  0  0  0  0  0  0  0
    2.6566  -26.0383   17.0471 O   0  0  0  0  0  0  0  0  0  0  0  0
    2.4716  -24.6161   17.1446 C   0  0  0  0  0  0  0  0  0  0  0  0
    3.2777  -24.0114   18.2997 C   0  0  0  0  0  0  0  0  0  0  0  0
    5.3987  -22.4216   20.5103 C   0  0  0  0  0  0  0  0  0  0  0  0
  1  2  1  0
  2  3  2  0
  3  4  1  0
  4  5  1  0
  4  6  2  0
  6  7  1  0
  7  8  1  0
  8  9  1  0
  9 10  1  0
 10 11  1  0
 11 12  1  0
 12 13  1  0
 13 14  1  0
  7 15  2  0
 15  2  1  0
 14  9  1  0
M  END
>  <inchikey>  (32) 
IMBCPPOKJQXRGV-UHFFFAOYSA-N

>  <tags>  (32) 
fragmenstein_placed,CpKRS_FrAncestor_bulkdock_iter2

>  <ref_pdb>  (32) 
x0540b

>  <energy_score>  (32) 
-24.647348

>  <distance_score>  (32) 
0.489612

>  <HIPPO Pose ID>  (32) 
52637

>  <ref_mols>  (32) 
x0675a

>  <smiles>  (32) 
Cc1cc(Br)cc(CN2CCOCC2)c1

>  <HIPPO Compound ID>  (32) 
324455

>  <alias>  (32) 
IMBCPPOKJQXRGV-UHFFFAOYSA-N-P59

>  <subsites>  (32) 


>  <placement_batch>  (32) 
CpKRS_FrAncestor_bulkdock_iter2

>  <name>  (32) 
IMBCPPOKJQXRGV-UHFFFAOYSA-N-P59

$$$$
QOLFIGNOJRSTEN-UHFFFAOYSA-N-P59
     RDKit          3D

 16 17  0  0  0  0  0  0  0  0999 V2000
    7.0850  -20.5392   20.6501 C   0  0  0  0  0  0  0  0  0  0  0  0
    5.7312  -21.1072   20.8730 C   0  0  0  0  0  0  0  0  0  0  0  0
    4.8357  -20.3320   21.5998 C   0  0  0  0  0  0  0  0  0  0  0  0
    3.6637  -20.8817   22.0780 C   0  0  0  0  0  0  0  0  0  0  0  0
    2.6047  -19.8264   23.2121 Br  0  0  0  0  0  0  0  0  0  0  0  0
    3.3183  -22.1873   21.7533 C   0  0  0  0  0  0  0  0  0  0  0  0
    4.1912  -22.9708   20.9808 C   0  0  0  0  0  0  0  0  0  0  0  0
    3.8414  -24.4090   20.7054 C   0  0  0  0  0  0  0  0  0  0  0  0
    2.8635  -24.5688   19.6285 N   0  0  0  0  0  0  0  0  0  0  0  0
    3.3674  -24.0873   18.3271 C   0  0  0  0  0  0  0  0  0  0  0  0
    2.4851  -24.5704   17.1703 C   0  0  0  0  0  0  0  0  0  0  0  0
    2.4364  -25.9999   17.0506 O   0  0  0  0  0  0  0  0  0  0  0  0
    2.7812  -26.6807   18.2612 C   0  0  0  0  0  0  0  0  0  0  0  0
    2.3645  -25.9602   19.5562 C   0  0  2  0  0  0  0  0  0  0  0  0
    0.8413  -25.9335   19.7155 C   0  0  0  0  0  0  0  0  0  0  0  0
    5.3974  -22.4154   20.5269 C   0  0  0  0  0  0  0  0  0  0  0  0
  1  2  1  0
  2  3  2  0
  3  4  1  0
  4  5  1  0
  4  6  2  0
  6  7  1  0
  7  8  1  0
  8  9  1  0
  9 10  1  0
 10 11  1  0
 11 12  1  0
 12 13  1  0
 13 14  1  0
 14 15  1  6
  7 16  2  0
 16  2  1  0
 14  9  1  0
M  END
>  <inchikey>  (33) 
QOLFIGNOJRSTEN-UHFFFAOYSA-N

>  <tags>  (33) 
fragmenstein_placed,CpKRS_FrAncestor_bulkdock_iter2

>  <ref_pdb>  (33) 
x0540b

>  <energy_score>  (33) 
-25.448433

>  <distance_score>  (33) 
0.465865

>  <HIPPO Pose ID>  (33) 
52639

>  <ref_mols>  (33) 
x0675a

>  <smiles>  (33) 
Cc1cc(Br)cc(CN2CCOCC2C)c1

>  <HIPPO Compound ID>  (33) 
139942

>  <alias>  (33) 
QOLFIGNOJRSTEN-UHFFFAOYSA-N-P59

>  <subsites>  (33) 


>  <placement_batch>  (33) 
CpKRS_FrAncestor_bulkdock_iter2

>  <name>  (33) 
QOLFIGNOJRSTEN-UHFFFAOYSA-N-P59

$$$$
SEDSUBRDLZKNQQ-UHFFFAOYSA-N-P60
     RDKit          3D

 17 18  0  0  0  0  0  0  0  0999 V2000
   -0.5936  -23.7887   22.9806 C   0  0  0  0  0  0  0  0  0  0  0  0
   -1.1777  -24.9245   23.7646 C   0  0  0  0  0  0  0  0  0  0  0  0
   -1.9105  -24.6975   24.9342 C   0  0  0  0  0  0  0  0  0  0  0  0
   -2.5515  -25.7616   25.5630 C   0  0  0  0  0  0  0  0  0  0  0  0
   -3.5702  -25.4639   27.1247 Br  0  0  0  0  0  0  0  0  0  0  0  0
   -2.4788  -27.0500   25.0342 C   0  0  0  0  0  0  0  0  0  0  0  0
   -1.7242  -27.2995   23.8797 C   0  0  0  0  0  0  0  0  0  0  0  0
   -1.6323  -28.6897   23.2835 C   0  0  0  0  0  0  0  0  0  0  0  0
   -0.4600  -29.4516   23.7512 N   0  0  0  0  0  0  0  0  0  0  0  0
   -0.5914  -29.8511   25.1630 C   0  0  0  0  0  0  0  0  0  0  0  0
   -1.7342  -30.8469   25.4470 C   0  0  0  0  0  0  0  0  0  0  0  0
   -2.0960  -31.6328   24.3023 O   0  0  0  0  0  0  0  0  0  0  0  0
   -0.9485  -31.9508   23.5079 C   0  0  0  0  0  0  0  0  0  0  0  0
   -0.2553  -30.6835   22.9297 C   0  0  2  0  0  0  0  0  0  0  0  0
    1.1896  -31.0120   22.7858 C   0  0  0  0  0  0  0  0  0  0  0  0
    2.2979  -31.3536   22.7080 N   0  0  0  0  0  0  0  0  0  0  0  0
   -1.0637  -26.2282   23.2640 C   0  0  0  0  0  0  0  0  0  0  0  0
  1  2  1  0
  2  3  2  0
  3  4  1  0
  4  5  1  0
  4  6  2  0
  6  7  1  0
  7  8  1  0
  8  9  1  0
  9 10  1  0
 10 11  1  0
 11 12  1  0
 12 13  1  0
 13 14  1  0
 14 15  1  1
 15 16  3  0
  7 17  2  0
 17  2  1  0
 14  9  1  0
M  END
>  <inchikey>  (34) 
SEDSUBRDLZKNQQ-UHFFFAOYSA-N

>  <tags>  (34) 
fragmenstein_placed,CpKRS_FrAncestor_bulkdock_iter2

>  <ref_pdb>  (34) 
x0540b

>  <energy_score>  (34) 
-17.915036

>  <distance_score>  (34) 
0.466488

>  <HIPPO Pose ID>  (34) 
52642

>  <ref_mols>  (34) 
x0675b

>  <smiles>  (34) 
Cc1cc(Br)cc(CN2CCOCC2C#N)c1

>  <HIPPO Compound ID>  (34) 
447502

>  <alias>  (34) 
SEDSUBRDLZKNQQ-UHFFFAOYSA-N-P60

>  <subsites>  (34) 


>  <placement_batch>  (34) 
CpKRS_FrAncestor_bulkdock_iter2

>  <name>  (34) 
SEDSUBRDLZKNQQ-UHFFFAOYSA-N-P60

$$$$
YHGSODAQYVHQCB-NSHDSACASA-N-P59
     RDKit          3D

 16 17  0  0  0  0  0  0  0  0999 V2000
    7.0846  -20.5480   20.6482 C   0  0  0  0  0  0  0  0  0  0  0  0
    5.7301  -21.1149   20.8703 C   0  0  0  0  0  0  0  0  0  0  0  0
    4.8371  -20.3397   21.6002 C   0  0  0  0  0  0  0  0  0  0  0  0
    3.6640  -20.8878   22.0769 C   0  0  0  0  0  0  0  0  0  0  0  0
    2.6072  -19.8308   23.2116 Br  0  0  0  0  0  0  0  0  0  0  0  0
    3.3158  -22.1921   21.7491 C   0  0  0  0  0  0  0  0  0  0  0  0
    4.1855  -22.9755   20.9724 C   0  0  0  0  0  0  0  0  0  0  0  0
    3.8304  -24.4120   20.6906 C   0  0  0  0  0  0  0  0  0  0  0  0
    2.8267  -24.5603   19.6363 N   0  0  0  0  0  0  0  0  0  0  0  0
    2.3394  -25.9488   19.5476 C   0  0  0  0  0  0  0  0  0  0  0  0
    2.8322  -26.6851   18.3006 C   0  0  0  0  0  0  0  0  0  0  0  0
    2.4720  -26.0467   17.0701 O   0  0  0  0  0  0  0  0  0  0  0  0
    2.4791  -24.6075   17.1375 C   0  0  1  0  0  0  0  0  0  0  0  0
    1.0400  -24.1020   17.1073 C   0  0  0  0  0  0  0  0  0  0  0  0
    3.2997  -24.0661   18.3274 C   0  0  0  0  0  0  0  0  0  0  0  0
    5.3926  -22.4212   20.5194 C   0  0  0  0  0  0  0  0  0  0  0  0
  1  2  1  0
  2  3  2  0
  3  4  1  0
  4  5  1  0
  4  6  2  0
  6  7  1  0
  7  8  1  0
  8  9  1  0
  9 10  1  0
 10 11  1  0
 11 12  1  0
 12 13  1  0
 13 14  1  1
 13 15  1  0
  7 16  2  0
 16  2  1  0
 15  9  1  0
M  END
>  <inchikey>  (35) 
YHGSODAQYVHQCB-UHFFFAOYSA-N

>  <tags>  (35) 
fragmenstein_placed,CpKRS_FrAncestor_bulkdock_iter2

>  <ref_pdb>  (35) 
x0540b

>  <energy_score>  (35) 
-20.519471

>  <distance_score>  (35) 
0.478082

>  <HIPPO Pose ID>  (35) 
52651

>  <ref_mols>  (35) 
x0675a

>  <smiles>  (35) 
Cc1cc(Br)cc(CN2CCO[C@@H](C)C2)c1

>  <HIPPO Compound ID>  (35) 
139687

>  <alias>  (35) 
YHGSODAQYVHQCB-NSHDSACASA-N-P59

>  <subsites>  (35) 


>  <placement_batch>  (35) 
CpKRS_FrAncestor_bulkdock_iter2

>  <name>  (35) 
YHGSODAQYVHQCB-NSHDSACASA-N-P59

$$$$
YXTQLPDBPBYLEY-UHFFFAOYSA-N-P20
     RDKit          3D

 17 18  0  0  0  0  0  0  0  0999 V2000
    6.1246    8.4981   38.8397 C   0  0  0  0  0  0  0  0  0  0  0  0
    5.4866    7.6293   39.8840 C   0  0  0  0  0  0  0  0  0  0  0  0
    5.8725    6.2931   39.9964 C   0  0  0  0  0  0  0  0  0  0  0  0
    5.3399    5.4902   41.0042 C   0  0  0  0  0  0  0  0  0  0  0  0
    6.3036    3.9043   41.3626 Br  0  0  0  0  0  0  0  0  0  0  0  0
    4.3540    6.0295   41.8300 C   0  0  0  0  0  0  0  0  0  0  0  0
    3.6254    5.2351   42.9019 C   0  0  0  0  0  0  0  0  0  0  0  0
    3.6407    4.0702   42.8666 O   0  0  0  0  0  0  0  0  0  0  0  0
    2.9927    6.1966   43.9318 N   0  0  0  0  0  0  0  0  0  0  0  0
    2.1659    5.9251   45.0818 C   0  0  2  0  0  0  0  0  0  0  0  0
    1.5218    7.1798   45.6490 C   0  0  0  0  0  0  0  0  0  0  0  0
    2.9913    5.2435   46.1369 C   0  0  0  0  0  0  0  0  0  0  0  0
    3.2862    3.7706   46.0394 C   0  0  0  0  0  0  0  0  0  0  0  0
    2.3444    4.2710   47.0955 C   0  0  0  0  0  0  0  0  0  0  0  0
    4.0272    7.3572   41.8005 N   0  0  0  0  0  0  0  0  0  0  0  0
    4.6047    8.1313   40.8449 C   0  0  0  0  0  0  0  0  0  0  0  0
    4.2633    9.5902   40.8928 C   0  0  0  0  0  0  0  0  0  0  0  0
  1  2  1  0
  2  3  2  0
  3  4  1  0
  4  5  1  0
  4  6  2  0
  6  7  1  0
  7  8  2  0
  7  9  1  0
  9 10  1  0
 10 11  1  1
 10 12  1  0
 12 13  1  0
 13 14  1  0
  6 15  1  0
 15 16  2  0
 16 17  1  0
 16  2  1  0
 14 12  1  0
M  END
>  <inchikey>  (36) 
YXTQLPDBPBYLEY-UHFFFAOYSA-N

>  <tags>  (36) 
fragmenstein_placed,CpKRS_FrAncestor_bulkdock_iter2

>  <ref_pdb>  (36) 
x0540b

>  <energy_score>  (36) 
-2.696933

>  <distance_score>  (36) 
0.484485

>  <HIPPO Pose ID>  (36) 
52656

>  <ref_mols>  (36) 
x0456a

>  <smiles>  (36) 
Cc1cc(Br)c(C(=O)NC(C)C2CC2)nc1C

>  <HIPPO Compound ID>  (36) 
144835

>  <alias>  (36) 
YXTQLPDBPBYLEY-UHFFFAOYSA-N-P20

>  <subsites>  (36) 


>  <placement_batch>  (36) 
CpKRS_FrAncestor_bulkdock_iter2

>  <name>  (36) 
YXTQLPDBPBYLEY-UHFFFAOYSA-N-P20

$$$$
AVISOZNLOKBAAB-UHFFFAOYSA-N-P23
     RDKit          3D

 14 14  0  0  0  0  0  0  0  0999 V2000
   24.9787    3.9272   26.1399 C   0  0  0  0  0  0  0  0  0  0  0  0
   24.7861    5.4005   25.9362 C   0  0  0  0  0  0  0  0  0  0  0  0
   25.8628    6.2857   26.0314 C   0  0  0  0  0  0  0  0  0  0  0  0
   25.6664    7.6437   25.7914 C   0  0  0  0  0  0  0  0  0  0  0  0
   27.1339    8.8336   25.8966 Br  0  0  0  0  0  0  0  0  0  0  0  0
   24.4008    8.1359   25.4717 C   0  0  0  0  0  0  0  0  0  0  0  0
   23.3073    7.2666   25.3736 C   0  0  0  0  0  0  0  0  0  0  0  0
   21.9108    7.7798   25.1125 C   0  0  0  0  0  0  0  0  0  0  0  0
   21.8791    8.6657   24.0143 O   0  0  0  0  0  0  0  0  0  0  0  0
   21.5670   10.2332   24.2456 S   0  0  0  0  0  0  0  0  0  0  0  0
   20.4496   10.5516   23.0381 N   0  0  0  0  0  0  0  0  0  0  0  0
   20.8390   10.4279   25.4777 O   0  0  0  0  0  0  0  0  0  0  0  0
   22.7540   10.9880   23.9294 O   0  0  0  0  0  0  0  0  0  0  0  0
   23.5239    5.8972   25.5854 C   0  0  0  0  0  0  0  0  0  0  0  0
  1  2  1  0
  2  3  2  0
  3  4  1  0
  4  5  1  0
  4  6  2  0
  6  7  1  0
  7  8  1  0
  8  9  1  0
  9 10  1  0
 10 11  1  0
 10 12  2  0
 10 13  2  0
  7 14  2  0
 14  2  1  0
M  END
>  <inchikey>  (37) 
AVISOZNLOKBAAB-UHFFFAOYSA-N

>  <tags>  (37) 
fragmenstein_placed,CpKRS_FrAncestor_bulkdock_iter2

>  <ref_pdb>  (37) 
x0540b

>  <energy_score>  (37) 
-31.844181

>  <distance_score>  (37) 
0.322747

>  <HIPPO Pose ID>  (37) 
52661

>  <ref_mols>  (37) 
x0472c

>  <smiles>  (37) 
Cc1cc(Br)cc(COS(N)(=O)=O)c1

>  <HIPPO Compound ID>  (37) 
447504

>  <alias>  (37) 
AVISOZNLOKBAAB-UHFFFAOYSA-N-P23

>  <subsites>  (37) 


>  <placement_batch>  (37) 
CpKRS_FrAncestor_bulkdock_iter2

>  <name>  (37) 
AVISOZNLOKBAAB-UHFFFAOYSA-N-P23

$$$$
BGHYRGKPOIVQBU-UHFFFAOYSA-N-P30
     RDKit          3D

 19 20  0  0  0  0  0  0  0  0999 V2000
    4.4933  -12.4165   22.3715 C   0  0  0  0  0  0  0  0  0  0  0  0
    4.6402  -11.1027   23.0729 C   0  0  0  0  0  0  0  0  0  0  0  0
    5.1131  -10.0514   22.3075 C   0  0  0  0  0  0  0  0  0  0  0  0
    5.1960   -8.7999   22.8790 C   0  0  0  0  0  0  0  0  0  0  0  0
    5.5534   -7.3788   21.7939 Br  0  0  0  0  0  0  0  0  0  0  0  0
    4.8673   -8.5504   24.1917 C   0  0  0  0  0  0  0  0  0  0  0  0
    5.0173   -7.3282   24.7195 F   0  0  0  0  0  0  0  0  0  0  0  0
    4.3379   -9.5604   24.9443 C   0  0  0  0  0  0  0  0  0  0  0  0
    4.2794  -10.8459   24.4055 C   0  0  0  0  0  0  0  0  0  0  0  0
    3.8915  -11.8323   25.2809 N   0  0  0  0  0  0  0  0  0  0  0  0
    4.2314  -13.3259   25.3116 C   0  0  0  0  0  0  0  0  0  0  0  0
    4.9533  -13.9467   24.6486 O   0  0  0  0  0  0  0  0  0  0  0  0
    3.4619  -13.9964   26.3800 C   0  0  0  0  0  0  0  0  0  0  0  0
    2.1268  -13.6522   26.5819 C   0  0  0  0  0  0  0  0  0  0  0  0
    1.4782  -14.2281   27.6485 C   0  0  0  0  0  0  0  0  0  0  0  0
    2.0290  -15.1335   28.4794 N   0  0  0  0  0  0  0  0  0  0  0  0
    3.3104  -15.4804   28.2155 C   0  0  0  0  0  0  0  0  0  0  0  0
    4.0631  -14.9462   27.1896 C   0  0  0  0  0  0  0  0  0  0  0  0
    5.8557  -15.4586   27.0202 Br  0  0  0  0  0  0  0  0  0  0  0  0
  1  2  1  0
  2  3  2  0
  3  4  1  0
  4  5  1  0
  4  6  2  0
  6  7  1  0
  6  8  1  0
  8  9  2  0
  9 10  1  0
 10 11  1  0
 11 12  2  0
 11 13  1  0
 13 14  2  0
 14 15  1  0
 15 16  2  0
 16 17  1  0
 17 18  2  0
 18 19  1  0
  9  2  1  0
 18 13  1  0
M  END
>  <inchikey>  (38) 
BGHYRGKPOIVQBU-UHFFFAOYSA-N

>  <tags>  (38) 
fragmenstein_placed,CpKRS_FrAncestor_bulkdock_iter2

>  <ref_pdb>  (38) 
x0540b

>  <energy_score>  (38) 
-12.013301

>  <distance_score>  (38) 
0.565172

>  <HIPPO Pose ID>  (38) 
52662

>  <ref_mols>  (38) 
x0485a

>  <smiles>  (38) 
Cc1cc(Br)c(F)cc1NC(=O)c1ccncc1Br

>  <HIPPO Compound ID>  (38) 
158033

>  <alias>  (38) 
BGHYRGKPOIVQBU-UHFFFAOYSA-N-P30

>  <subsites>  (38) 


>  <placement_batch>  (38) 
CpKRS_FrAncestor_bulkdock_iter2

>  <name>  (38) 
BGHYRGKPOIVQBU-UHFFFAOYSA-N-P30

$$$$
FZSKJTGRPDYBPF-UHFFFAOYSA-N-P30
     RDKit          3D

 19 20  0  0  0  0  0  0  0  0999 V2000
    4.6242  -12.5856   22.4525 C   0  0  0  0  0  0  0  0  0  0  0  0
    4.7260  -11.2616   23.1355 C   0  0  0  0  0  0  0  0  0  0  0  0
    5.1732  -10.1972   22.3635 C   0  0  0  0  0  0  0  0  0  0  0  0
    5.1839   -8.9315   22.9111 C   0  0  0  0  0  0  0  0  0  0  0  0
    5.5387   -7.5009   21.8249 Br  0  0  0  0  0  0  0  0  0  0  0  0
    4.7930   -8.6867   24.2075 C   0  0  0  0  0  0  0  0  0  0  0  0
    4.8728   -7.4536   24.7257 F   0  0  0  0  0  0  0  0  0  0  0  0
    4.2824   -9.7142   24.9572 C   0  0  0  0  0  0  0  0  0  0  0  0
    4.3117  -11.0144   24.4501 C   0  0  0  0  0  0  0  0  0  0  0  0
    3.9149  -12.0086   25.3219 N   0  0  0  0  0  0  0  0  0  0  0  0
    4.3899  -13.4682   25.4590 C   0  0  0  0  0  0  0  0  0  0  0  0
    5.2446  -14.0394   24.9094 O   0  0  0  0  0  0  0  0  0  0  0  0
    3.6436  -14.1835   26.5326 C   0  0  0  0  0  0  0  0  0  0  0  0
    4.3689  -15.1573   27.2256 C   0  0  0  0  0  0  0  0  0  0  0  0
    3.7813  -15.7687   28.3132 C   0  0  0  0  0  0  0  0  0  0  0  0
    2.5440  -15.4802   28.7603 N   0  0  0  0  0  0  0  0  0  0  0  0
    1.8554  -14.5677   28.0425 C   0  0  0  0  0  0  0  0  0  0  0  0
    2.3280  -13.9232   26.9113 C   0  0  0  0  0  0  0  0  0  0  0  0
    1.2237  -12.8968   26.0768 Cl  0  0  0  0  0  0  0  0  0  0  0  0
  1  2  1  0
  2  3  2  0
  3  4  1  0
  4  5  1  0
  4  6  2  0
  6  7  1  0
  6  8  1  0
  8  9  2  0
  9 10  1  0
 10 11  1  0
 11 12  2  0
 11 13  1  0
 13 14  2  0
 14 15  1  0
 15 16  2  0
 16 17  1  0
 17 18  2  0
 18 19  1  0
  9  2  1  0
 18 13  1  0
M  END
>  <inchikey>  (39) 
FZSKJTGRPDYBPF-UHFFFAOYSA-N

>  <tags>  (39) 
fragmenstein_placed,CpKRS_FrAncestor_bulkdock_iter2

>  <ref_pdb>  (39) 
x0540b

>  <energy_score>  (39) 
-5.241201

>  <distance_score>  (39) 
0.771427

>  <HIPPO Pose ID>  (39) 
52665

>  <ref_mols>  (39) 
x0485a

>  <smiles>  (39) 
Cc1cc(Br)c(F)cc1NC(=O)c1ccncc1Cl

>  <HIPPO Compound ID>  (39) 
156249

>  <alias>  (39) 
FZSKJTGRPDYBPF-UHFFFAOYSA-N-P30

>  <subsites>  (39) 


>  <placement_batch>  (39) 
CpKRS_FrAncestor_bulkdock_iter2

>  <name>  (39) 
FZSKJTGRPDYBPF-UHFFFAOYSA-N-P30

$$$$
VQTWCZYTLWZEAK-UHFFFAOYSA-N-P30
     RDKit          3D

 19 20  0  0  0  0  0  0  0  0999 V2000
    4.6172  -12.5937   22.4655 C   0  0  0  0  0  0  0  0  0  0  0  0
    4.7012  -11.2624   23.1358 C   0  0  0  0  0  0  0  0  0  0  0  0
    5.1551  -10.2014   22.3639 C   0  0  0  0  0  0  0  0  0  0  0  0
    5.1632   -8.9346   22.9092 C   0  0  0  0  0  0  0  0  0  0  0  0
    5.5405   -7.5072   21.8262 Br  0  0  0  0  0  0  0  0  0  0  0  0
    4.7602   -8.6860   24.2020 C   0  0  0  0  0  0  0  0  0  0  0  0
    4.8471   -7.4535   24.7202 F   0  0  0  0  0  0  0  0  0  0  0  0
    4.2366   -9.7089   24.9488 C   0  0  0  0  0  0  0  0  0  0  0  0
    4.2695  -11.0090   24.4432 C   0  0  0  0  0  0  0  0  0  0  0  0
    3.8903  -12.0036   25.3199 N   0  0  0  0  0  0  0  0  0  0  0  0
    4.4233  -13.4411   25.4965 C   0  0  0  0  0  0  0  0  0  0  0  0
    5.3178  -13.9844   24.9811 O   0  0  0  0  0  0  0  0  0  0  0  0
    3.6848  -14.1676   26.5623 C   0  0  0  0  0  0  0  0  0  0  0  0
    4.3312  -15.2340   27.1841 C   0  0  0  0  0  0  0  0  0  0  0  0
    3.6963  -15.8500   28.2431 C   0  0  0  0  0  0  0  0  0  0  0  0
    2.4792  -15.4969   28.7112 N   0  0  0  0  0  0  0  0  0  0  0  0
    1.8684  -14.4857   28.0619 C   0  0  0  0  0  0  0  0  0  0  0  0
    2.4156  -13.8075   26.9937 C   0  0  0  0  0  0  0  0  0  0  0  0
    1.7226  -12.7993   26.4455 F   0  0  0  0  0  0  0  0  0  0  0  0
  1  2  1  0
  2  3  2  0
  3  4  1  0
  4  5  1  0
  4  6  2  0
  6  7  1  0
  6  8  1  0
  8  9  2  0
  9 10  1  0
 10 11  1  0
 11 12  2  0
 11 13  1  0
 13 14  2  0
 14 15  1  0
 15 16  2  0
 16 17  1  0
 17 18  2  0
 18 19  1  0
  9  2  1  0
 18 13  1  0
M  END
>  <inchikey>  (40) 
VQTWCZYTLWZEAK-UHFFFAOYSA-N

>  <tags>  (40) 
fragmenstein_placed,CpKRS_FrAncestor_bulkdock_iter2

>  <ref_pdb>  (40) 
x0540b

>  <energy_score>  (40) 
-2.664099

>  <distance_score>  (40) 
0.767235

>  <HIPPO Pose ID>  (40) 
52671

>  <ref_mols>  (40) 
x0485a

>  <smiles>  (40) 
Cc1cc(Br)c(F)cc1NC(=O)c1ccncc1F

>  <HIPPO Compound ID>  (40) 
156229

>  <alias>  (40) 
VQTWCZYTLWZEAK-UHFFFAOYSA-N-P30

>  <subsites>  (40) 


>  <placement_batch>  (40) 
CpKRS_FrAncestor_bulkdock_iter2

>  <name>  (40) 
VQTWCZYTLWZEAK-UHFFFAOYSA-N-P30

$$$$
RAMYAUQFIIEOHN-UHFFFAOYSA-N-P30
     RDKit          3D

 18 19  0  0  0  0  0  0  0  0999 V2000
    4.6236  -12.5881   22.4595 C   0  0  0  0  0  0  0  0  0  0  0  0
    4.7342  -11.2614   23.1358 C   0  0  0  0  0  0  0  0  0  0  0  0
    5.1638  -10.1984   22.3515 C   0  0  0  0  0  0  0  0  0  0  0  0
    5.1849   -8.9308   22.8952 C   0  0  0  0  0  0  0  0  0  0  0  0
    5.5361   -7.5039   21.8049 Br  0  0  0  0  0  0  0  0  0  0  0  0
    4.8141   -8.6808   24.1960 C   0  0  0  0  0  0  0  0  0  0  0  0
    4.8979   -7.4457   24.7087 F   0  0  0  0  0  0  0  0  0  0  0  0
    4.3223   -9.7070   24.9585 C   0  0  0  0  0  0  0  0  0  0  0  0
    4.3499  -11.0105   24.4582 C   0  0  0  0  0  0  0  0  0  0  0  0
    3.9927  -11.9995   25.3527 N   0  0  0  0  0  0  0  0  0  0  0  0
    4.4740  -13.4612   25.4766 C   0  0  0  0  0  0  0  0  0  0  0  0
    5.3027  -14.0358   24.8919 O   0  0  0  0  0  0  0  0  0  0  0  0
    3.7124  -14.1749   26.5361 C   0  0  0  0  0  0  0  0  0  0  0  0
    2.3936  -13.8495   26.8507 C   0  0  0  0  0  0  0  0  0  0  0  0
    1.8248  -14.4820   27.9340 C   0  0  0  0  0  0  0  0  0  0  0  0
    2.4401  -15.4271   28.6695 N   0  0  0  0  0  0  0  0  0  0  0  0
    3.6906  -15.7665   28.2854 C   0  0  0  0  0  0  0  0  0  0  0  0
    4.3651  -15.1808   27.2370 C   0  0  0  0  0  0  0  0  0  0  0  0
  1  2  1  0
  2  3  2  0
  3  4  1  0
  4  5  1  0
  4  6  2  0
  6  7  1  0
  6  8  1  0
  8  9  2  0
  9 10  1  0
 10 11  1  0
 11 12  2  0
 11 13  1  0
 13 14  2  0
 14 15  1  0
 15 16  2  0
 16 17  1  0
 17 18  2  0
  9  2  1  0
 18 13  1  0
M  END
>  <inchikey>  (41) 
RAMYAUQFIIEOHN-UHFFFAOYSA-N

>  <tags>  (41) 
fragmenstein_placed,CpKRS_FrAncestor_bulkdock_iter2

>  <ref_pdb>  (41) 
x0540b

>  <energy_score>  (41) 
-3.866619

>  <distance_score>  (41) 
0.728071

>  <HIPPO Pose ID>  (41) 
52674

>  <ref_mols>  (41) 
x0485a

>  <smiles>  (41) 
Cc1cc(Br)c(F)cc1NC(=O)c1ccncc1

>  <HIPPO Compound ID>  (41) 
158032

>  <alias>  (41) 
RAMYAUQFIIEOHN-UHFFFAOYSA-N-P30

>  <subsites>  (41) 


>  <placement_batch>  (41) 
CpKRS_FrAncestor_bulkdock_iter2

>  <name>  (41) 
RAMYAUQFIIEOHN-UHFFFAOYSA-N-P30

$$$$
LIKNSFLKKOTCJU-UHFFFAOYSA-N-P38
     RDKit          3D

 16 16  0  0  0  0  0  0  0  0999 V2000
    3.3917  -16.0268   28.2498 C   0  0  0  0  0  0  0  0  0  0  0  0
    2.9250  -15.0192   27.2455 C   0  0  0  0  0  0  0  0  0  0  0  0
    1.5770  -14.7050   27.1386 C   0  0  0  0  0  0  0  0  0  0  0  0
    1.1390  -13.8170   26.1560 C   0  0  0  0  0  0  0  0  0  0  0  0
   -0.7363  -13.6926   25.8632 Br  0  0  0  0  0  0  0  0  0  0  0  0
    2.0425  -13.1028   25.3412 C   0  0  0  0  0  0  0  0  0  0  0  0
    1.5296  -12.2268   24.3324 N   0  0  0  0  0  0  0  0  0  0  0  0
    3.4049  -13.4643   25.4017 C   0  0  0  0  0  0  0  0  0  0  0  0
    4.5094  -12.9098   24.5226 C   0  0  0  0  0  0  0  0  0  0  0  0
    5.5484  -13.4281   24.5910 O   0  0  0  0  0  0  0  0  0  0  0  0
    4.0416  -11.7334   23.6599 N   0  0  0  0  0  0  0  0  0  0  0  0
    4.7228  -11.0043   22.6297 C   0  0  0  0  0  0  0  0  0  0  0  0
    4.6405   -9.4886   22.8029 C   0  0  0  0  0  0  0  0  0  0  0  0
    5.2906   -9.0154   24.1024 C   0  0  0  0  0  0  0  0  0  0  0  0
    5.3247   -8.8224   21.6149 C   0  0  0  0  0  0  0  0  0  0  0  0
    3.8167  -14.4314   26.3474 C   0  0  0  0  0  0  0  0  0  0  0  0
  1  2  1  0
  2  3  2  0
  3  4  1  0
  4  5  1  0
  4  6  2  0
  6  7  1  0
  6  8  1  0
  8  9  1  0
  9 10  2  0
  9 11  1  0
 11 12  1  0
 12 13  1  0
 13 14  1  0
 13 15  1  0
  8 16  2  0
 16  2  1  0
M  END
>  <inchikey>  (42) 
LIKNSFLKKOTCJU-UHFFFAOYSA-N

>  <tags>  (42) 
fragmenstein_placed,CpKRS_FrAncestor_bulkdock_iter2

>  <ref_pdb>  (42) 
x0540b

>  <energy_score>  (42) 
-18.316079

>  <distance_score>  (42) 
0.322006

>  <HIPPO Pose ID>  (42) 
52677

>  <ref_mols>  (42) 
x0555a

>  <smiles>  (42) 
Cc1cc(Br)c(N)c(C(=O)NCC(C)C)c1

>  <HIPPO Compound ID>  (42) 
126241

>  <alias>  (42) 
LIKNSFLKKOTCJU-UHFFFAOYSA-N-P38

>  <subsites>  (42) 


>  <placement_batch>  (42) 
CpKRS_FrAncestor_bulkdock_iter2

>  <name>  (42) 
LIKNSFLKKOTCJU-UHFFFAOYSA-N-P38

$$$$
UYBOYRUTLAVHPA-UHFFFAOYSA-N-P38
     RDKit          3D

 16 16  0  0  0  0  0  0  0  0999 V2000
    3.4007  -16.0462   28.2434 C   0  0  0  0  0  0  0  0  0  0  0  0
    2.9402  -15.0517   27.2232 C   0  0  0  0  0  0  0  0  0  0  0  0
    1.5906  -14.7361   27.1099 C   0  0  0  0  0  0  0  0  0  0  0  0
    1.1595  -13.8546   26.1220 C   0  0  0  0  0  0  0  0  0  0  0  0
   -0.7043  -13.6623   25.8355 Br  0  0  0  0  0  0  0  0  0  0  0  0
    2.0764  -13.1916   25.2969 C   0  0  0  0  0  0  0  0  0  0  0  0
    1.6179  -12.2415   24.4141 O   0  0  0  0  0  0  0  0  0  0  0  0
    3.4380  -13.5113   25.3735 C   0  0  0  0  0  0  0  0  0  0  0  0
    4.5384  -12.9271   24.5123 C   0  0  0  0  0  0  0  0  0  0  0  0
    5.6232  -13.2831   24.7382 O   0  0  0  0  0  0  0  0  0  0  0  0
    4.0215  -11.8907   23.5069 N   0  0  0  0  0  0  0  0  0  0  0  0
    4.7164  -11.1408   22.5007 C   0  0  0  0  0  0  0  0  0  0  0  0
    4.6229   -9.6274   22.7187 C   0  0  0  0  0  0  0  0  0  0  0  0
    5.3134   -8.9134   21.5633 C   0  0  0  0  0  0  0  0  0  0  0  0
    5.2486   -9.1832   24.0408 C   0  0  0  0  0  0  0  0  0  0  0  0
    3.8426  -14.4691   26.3284 C   0  0  0  0  0  0  0  0  0  0  0  0
  1  2  1  0
  2  3  2  0
  3  4  1  0
  4  5  1  0
  4  6  2  0
  6  7  1  0
  6  8  1  0
  8  9  1  0
  9 10  2  0
  9 11  1  0
 11 12  1  0
 12 13  1  0
 13 14  1  0
 13 15  1  0
  8 16  2  0
 16  2  1  0
M  END
>  <inchikey>  (43) 
UYBOYRUTLAVHPA-UHFFFAOYSA-N

>  <tags>  (43) 
fragmenstein_placed,CpKRS_FrAncestor_bulkdock_iter2

>  <ref_pdb>  (43) 
x0540b

>  <energy_score>  (43) 
-26.291584

>  <distance_score>  (43) 
0.411889

>  <HIPPO Pose ID>  (43) 
52678

>  <ref_mols>  (43) 
x0555a

>  <smiles>  (43) 
Cc1cc(Br)c(O)c(C(=O)NCC(C)C)c1

>  <HIPPO Compound ID>  (43) 
136262

>  <alias>  (43) 
UYBOYRUTLAVHPA-UHFFFAOYSA-N-P38

>  <subsites>  (43) 


>  <placement_batch>  (43) 
CpKRS_FrAncestor_bulkdock_iter2

>  <name>  (43) 
UYBOYRUTLAVHPA-UHFFFAOYSA-N-P38

$$$$
LDXZBVVYAOJUFQ-UHFFFAOYSA-N-P22
     RDKit          3D

 14 14  0  0  0  0  0  0  0  0999 V2000
   25.7076    9.3225   24.9430 C   0  0  0  0  0  0  0  0  0  0  0  0
   25.3738    7.9162   25.3649 C   0  0  0  0  0  0  0  0  0  0  0  0
   26.2676    7.2422   26.2138 C   0  0  0  0  0  0  0  0  0  0  0  0
   26.0377    5.9231   26.5884 C   0  0  0  0  0  0  0  0  0  0  0  0
   24.9140    5.2627   26.1094 C   0  0  0  0  0  0  0  0  0  0  0  0
   24.6878    3.4467   26.5551 Br  0  0  0  0  0  0  0  0  0  0  0  0
   23.9926    5.9196   25.2930 C   0  0  0  0  0  0  0  0  0  0  0  0
   24.2074    7.2579   24.9136 C   0  0  0  0  0  0  0  0  0  0  0  0
   23.1809    7.9585   24.0494 C   0  0  0  0  0  0  0  0  0  0  0  0
   22.3310    8.7240   24.8836 O   0  0  0  0  0  0  0  0  0  0  0  0
   21.8346   10.1756   24.3788 S   0  0  0  0  0  0  0  0  0  0  0  0
   20.8325    9.8392   23.0791 N   0  0  0  0  0  0  0  0  0  0  0  0
   22.9342   10.9335   23.8324 O   0  0  0  0  0  0  0  0  0  0  0  0
   20.9476   10.7435   25.3714 O   0  0  0  0  0  0  0  0  0  0  0  0
  1  2  1  0
  2  3  2  0
  3  4  1  0
  4  5  2  0
  5  6  1  0
  5  7  1  0
  7  8  2  0
  8  9  1  0
  9 10  1  0
 10 11  1  0
 11 12  1  0
 11 13  2  0
 11 14  2  0
  8  2  1  0
M  END
>  <inchikey>  (44) 
LDXZBVVYAOJUFQ-UHFFFAOYSA-N

>  <tags>  (44) 
fragmenstein_placed,CpKRS_FrAncestor_bulkdock_iter2

>  <ref_pdb>  (44) 
x0540b

>  <energy_score>  (44) 
-29.750627

>  <distance_score>  (44) 
0.434354

>  <HIPPO Pose ID>  (44) 
52695

>  <ref_mols>  (44) 
x0472b

>  <smiles>  (44) 
Cc1ccc(Br)cc1COS(N)(=O)=O

>  <HIPPO Compound ID>  (44) 
447512

>  <alias>  (44) 
LDXZBVVYAOJUFQ-UHFFFAOYSA-N-P22

>  <subsites>  (44) 


>  <placement_batch>  (44) 
CpKRS_FrAncestor_bulkdock_iter2

>  <name>  (44) 
LDXZBVVYAOJUFQ-UHFFFAOYSA-N-P22

$$$$
DVYZMXOXCZULPN-UHFFFAOYSA-N-P30
     RDKit          3D

 18 19  0  0  0  0  0  0  0  0999 V2000
    4.6885  -12.1890   22.1388 C   0  0  0  0  0  0  0  0  0  0  0  0
    4.8864  -10.8666   22.8182 C   0  0  0  0  0  0  0  0  0  0  0  0
    5.3862   -9.8044   22.0504 C   0  0  0  0  0  0  0  0  0  0  0  0
    5.6077   -8.5570   22.6186 C   0  0  0  0  0  0  0  0  0  0  0  0
    5.3265   -8.3636   23.9613 C   0  0  0  0  0  0  0  0  0  0  0  0
    5.8619   -6.7741   24.8108 Br  0  0  0  0  0  0  0  0  0  0  0  0
    4.7245   -9.3649   24.7112 C   0  0  0  0  0  0  0  0  0  0  0  0
    4.5626  -10.6366   24.1619 C   0  0  0  0  0  0  0  0  0  0  0  0
    4.0514  -11.6298   24.9895 N   0  0  0  0  0  0  0  0  0  0  0  0
    4.4602  -13.1105   25.1502 C   0  0  0  0  0  0  0  0  0  0  0  0
    5.2378  -13.7482   24.5596 O   0  0  0  0  0  0  0  0  0  0  0  0
    3.6727  -13.8076   26.2125 C   0  0  0  0  0  0  0  0  0  0  0  0
    4.3481  -14.8220   26.9062 C   0  0  0  0  0  0  0  0  0  0  0  0
    3.6907  -15.4972   27.9182 C   0  0  0  0  0  0  0  0  0  0  0  0
    2.4269  -15.2279   28.2988 N   0  0  0  0  0  0  0  0  0  0  0  0
    1.7887  -14.2762   27.5829 C   0  0  0  0  0  0  0  0  0  0  0  0
    2.3372  -13.5629   26.5255 C   0  0  0  0  0  0  0  0  0  0  0  0
    1.1612  -12.4197   25.5782 Br  0  0  0  0  0  0  0  0  0  0  0  0
  1  2  1  0
  2  3  2  0
  3  4  1  0
  4  5  2  0
  5  6  1  0
  5  7  1  0
  7  8  2  0
  8  9  1  0
  9 10  1  0
 10 11  2  0
 10 12  1  0
 12 13  2  0
 13 14  1  0
 14 15  2  0
 15 16  1  0
 16 17  2  0
 17 18  1  0
  8  2  1  0
 17 12  1  0
M  END
>  <inchikey>  (45) 
DVYZMXOXCZULPN-UHFFFAOYSA-N

>  <tags>  (45) 
fragmenstein_placed,CpKRS_FrAncestor_bulkdock_iter2

>  <ref_pdb>  (45) 
x0540b

>  <energy_score>  (45) 
-15.413245

>  <distance_score>  (45) 
0.355676

>  <HIPPO Pose ID>  (45) 
52697

>  <ref_mols>  (45) 
x0485a

>  <smiles>  (45) 
Cc1ccc(Br)cc1NC(=O)c1ccncc1Br

>  <HIPPO Compound ID>  (45) 
157243

>  <alias>  (45) 
DVYZMXOXCZULPN-UHFFFAOYSA-N-P30

>  <subsites>  (45) 


>  <placement_batch>  (45) 
CpKRS_FrAncestor_bulkdock_iter2

>  <name>  (45) 
DVYZMXOXCZULPN-UHFFFAOYSA-N-P30

$$$$
KRDDUJMMUVWHBG-UHFFFAOYSA-N-P30
     RDKit          3D

 18 19  0  0  0  0  0  0  0  0999 V2000
    4.6760  -12.2170   22.1651 C   0  0  0  0  0  0  0  0  0  0  0  0
    4.8759  -10.8866   22.8267 C   0  0  0  0  0  0  0  0  0  0  0  0
    5.3609   -9.8307   22.0391 C   0  0  0  0  0  0  0  0  0  0  0  0
    5.5914   -8.5760   22.5892 C   0  0  0  0  0  0  0  0  0  0  0  0
    5.3278   -8.3677   23.9329 C   0  0  0  0  0  0  0  0  0  0  0  0
    5.8787   -6.7754   24.7666 Br  0  0  0  0  0  0  0  0  0  0  0  0
    4.7379   -9.3615   24.7012 C   0  0  0  0  0  0  0  0  0  0  0  0
    4.5740  -10.6421   24.1717 C   0  0  0  0  0  0  0  0  0  0  0  0
    4.1156  -11.6196   25.0468 N   0  0  0  0  0  0  0  0  0  0  0  0
    4.4867  -13.1151   25.1648 C   0  0  0  0  0  0  0  0  0  0  0  0
    5.2905  -13.7416   24.5970 O   0  0  0  0  0  0  0  0  0  0  0  0
    3.6865  -13.8212   26.2114 C   0  0  0  0  0  0  0  0  0  0  0  0
    4.3360  -14.8665   26.8842 C   0  0  0  0  0  0  0  0  0  0  0  0
    3.6628  -15.5416   27.8860 C   0  0  0  0  0  0  0  0  0  0  0  0
    2.4055  -15.2480   28.2719 N   0  0  0  0  0  0  0  0  0  0  0  0
    1.7937  -14.2631   27.5772 C   0  0  0  0  0  0  0  0  0  0  0  0
    2.3631  -13.5391   26.5388 C   0  0  0  0  0  0  0  0  0  0  0  0
    1.3535  -12.3993   25.7334 Cl  0  0  0  0  0  0  0  0  0  0  0  0
  1  2  1  0
  2  3  2  0
  3  4  1  0
  4  5  2  0
  5  6  1  0
  5  7  1  0
  7  8  2  0
  8  9  1  0
  9 10  1  0
 10 11  2  0
 10 12  1  0
 12 13  2  0
 13 14  1  0
 14 15  2  0
 15 16  1  0
 16 17  2  0
 17 18  1  0
  8  2  1  0
 17 12  1  0
M  END
>  <inchikey>  (46) 
KRDDUJMMUVWHBG-UHFFFAOYSA-N

>  <tags>  (46) 
fragmenstein_placed,CpKRS_FrAncestor_bulkdock_iter2

>  <ref_pdb>  (46) 
x0540b

>  <energy_score>  (46) 
-7.036852

>  <distance_score>  (46) 
0.336682

>  <HIPPO Pose ID>  (46) 
52700

>  <ref_mols>  (46) 
x0485a

>  <smiles>  (46) 
Cc1ccc(Br)cc1NC(=O)c1ccncc1Cl

>  <HIPPO Compound ID>  (46) 
157767

>  <alias>  (46) 
KRDDUJMMUVWHBG-UHFFFAOYSA-N-P30

>  <subsites>  (46) 


>  <placement_batch>  (46) 
CpKRS_FrAncestor_bulkdock_iter2

>  <name>  (46) 
KRDDUJMMUVWHBG-UHFFFAOYSA-N-P30

$$$$
MEAAVKUTROHVET-UHFFFAOYSA-N-P30
     RDKit          3D

 18 19  0  0  0  0  0  0  0  0999 V2000
    4.6904  -12.1842   22.1489 C   0  0  0  0  0  0  0  0  0  0  0  0
    4.8979  -10.8603   22.8220 C   0  0  0  0  0  0  0  0  0  0  0  0
    5.3904   -9.8017   22.0440 C   0  0  0  0  0  0  0  0  0  0  0  0
    5.6184   -8.5507   22.6029 C   0  0  0  0  0  0  0  0  0  0  0  0
    5.3544   -8.3502   23.9476 C   0  0  0  0  0  0  0  0  0  0  0  0
    5.8886   -6.7556   24.7861 Br  0  0  0  0  0  0  0  0  0  0  0  0
    4.7633   -9.3481   24.7089 C   0  0  0  0  0  0  0  0  0  0  0  0
    4.5906  -10.6223   24.1680 C   0  0  0  0  0  0  0  0  0  0  0  0
    4.0691  -11.5981   25.0090 N   0  0  0  0  0  0  0  0  0  0  0  0
    4.4387  -13.0944   25.1642 C   0  0  0  0  0  0  0  0  0  0  0  0
    5.1835  -13.7557   24.5574 O   0  0  0  0  0  0  0  0  0  0  0  0
    3.5920  -13.7380   26.2180 C   0  0  0  0  0  0  0  0  0  0  0  0
    2.2470  -13.3688   26.3049 C   0  0  0  0  0  0  0  0  0  0  0  0
    1.4662  -13.9680   27.2679 C   0  0  0  0  0  0  0  0  0  0  0  0
    1.9047  -14.9076   28.1229 N   0  0  0  0  0  0  0  0  0  0  0  0
    3.1931  -15.2864   27.9761 C   0  0  0  0  0  0  0  0  0  0  0  0
    4.0831  -14.7440   27.0563 C   0  0  0  0  0  0  0  0  0  0  0  0
    5.4596  -15.3138   26.9728 C   0  0  0  0  0  0  0  0  0  0  0  0
  1  2  1  0
  2  3  2  0
  3  4  1  0
  4  5  2  0
  5  6  1  0
  5  7  1  0
  7  8  2  0
  8  9  1  0
  9 10  1  0
 10 11  2  0
 10 12  1  0
 12 13  2  0
 13 14  1  0
 14 15  2  0
 15 16  1  0
 16 17  2  0
 17 18  1  0
  8  2  1  0
 17 12  1  0
M  END
>  <inchikey>  (47) 
MEAAVKUTROHVET-UHFFFAOYSA-N

>  <tags>  (47) 
fragmenstein_placed,CpKRS_FrAncestor_bulkdock_iter2

>  <ref_pdb>  (47) 
x0540b

>  <energy_score>  (47) 
-7.637258

>  <distance_score>  (47) 
0.274466

>  <HIPPO Pose ID>  (47) 
52703

>  <ref_mols>  (47) 
x0485a

>  <smiles>  (47) 
Cc1ccc(Br)cc1NC(=O)c1ccncc1C

>  <HIPPO Compound ID>  (47) 
153980

>  <alias>  (47) 
MEAAVKUTROHVET-UHFFFAOYSA-N-P30

>  <subsites>  (47) 


>  <placement_batch>  (47) 
CpKRS_FrAncestor_bulkdock_iter2

>  <name>  (47) 
MEAAVKUTROHVET-UHFFFAOYSA-N-P30

$$$$
CQSGOBXAFDZAGN-UHFFFAOYSA-N-P30
     RDKit          3D

 18 19  0  0  0  0  0  0  0  0999 V2000
    4.6825  -12.2180   22.1547 C   0  0  0  0  0  0  0  0  0  0  0  0
    4.8570  -10.8852   22.8188 C   0  0  0  0  0  0  0  0  0  0  0  0
    5.3723   -9.8299   22.0526 C   0  0  0  0  0  0  0  0  0  0  0  0
    5.5927   -8.5814   22.6192 C   0  0  0  0  0  0  0  0  0  0  0  0
    5.2904   -8.3801   23.9567 C   0  0  0  0  0  0  0  0  0  0  0  0
    5.8421   -6.7968   24.8090 Br  0  0  0  0  0  0  0  0  0  0  0  0
    4.6664   -9.3728   24.7014 C   0  0  0  0  0  0  0  0  0  0  0  0
    4.5085  -10.6458   24.1540 C   0  0  0  0  0  0  0  0  0  0  0  0
    4.0206  -11.6453   24.9870 N   0  0  0  0  0  0  0  0  0  0  0  0
    4.5037  -13.1000   25.2011 C   0  0  0  0  0  0  0  0  0  0  0  0
    5.3376  -13.7081   24.6556 O   0  0  0  0  0  0  0  0  0  0  0  0
    3.7293  -13.8147   26.2551 C   0  0  0  0  0  0  0  0  0  0  0  0
    4.3082  -14.9392   26.8519 C   0  0  0  0  0  0  0  0  0  0  0  0
    3.5913  -15.6180   27.8215 C   0  0  0  0  0  0  0  0  0  0  0  0
    2.3531  -15.2651   28.2313 N   0  0  0  0  0  0  0  0  0  0  0  0
    1.8152  -14.1908   27.6152 C   0  0  0  0  0  0  0  0  0  0  0  0
    2.4504  -13.4455   26.6408 C   0  0  0  0  0  0  0  0  0  0  0  0
    1.8152  -12.3887   26.1152 F   0  0  0  0  0  0  0  0  0  0  0  0
  1  2  1  0
  2  3  2  0
  3  4  1  0
  4  5  2  0
  5  6  1  0
  5  7  1  0
  7  8  2  0
  8  9  1  0
  9 10  1  0
 10 11  2  0
 10 12  1  0
 12 13  2  0
 13 14  1  0
 14 15  2  0
 15 16  1  0
 16 17  2  0
 17 18  1  0
  8  2  1  0
 17 12  1  0
M  END
>  <inchikey>  (48) 
CQSGOBXAFDZAGN-UHFFFAOYSA-N

>  <tags>  (48) 
fragmenstein_placed,CpKRS_FrAncestor_bulkdock_iter2

>  <ref_pdb>  (48) 
x0540b

>  <energy_score>  (48) 
-3.725558

>  <distance_score>  (48) 
0.343818

>  <HIPPO Pose ID>  (48) 
52706

>  <ref_mols>  (48) 
x0485a

>  <smiles>  (48) 
Cc1ccc(Br)cc1NC(=O)c1ccncc1F

>  <HIPPO Compound ID>  (48) 
157671

>  <alias>  (48) 
CQSGOBXAFDZAGN-UHFFFAOYSA-N-P30

>  <subsites>  (48) 


>  <placement_batch>  (48) 
CpKRS_FrAncestor_bulkdock_iter2

>  <name>  (48) 
CQSGOBXAFDZAGN-UHFFFAOYSA-N-P30

$$$$
QLHGXZRAEKGXLM-UHFFFAOYSA-N-P30
     RDKit          3D

 17 18  0  0  0  0  0  0  0  0999 V2000
    4.6797  -12.2087   22.1606 C   0  0  0  0  0  0  0  0  0  0  0  0
    4.8736  -10.8791   22.8268 C   0  0  0  0  0  0  0  0  0  0  0  0
    5.3674   -9.8219   22.0475 C   0  0  0  0  0  0  0  0  0  0  0  0
    5.5954   -8.5707   22.6054 C   0  0  0  0  0  0  0  0  0  0  0  0
    5.3229   -8.3681   23.9486 C   0  0  0  0  0  0  0  0  0  0  0  0
    5.8690   -6.7768   24.7879 Br  0  0  0  0  0  0  0  0  0  0  0  0
    4.7257   -9.3640   24.7096 C   0  0  0  0  0  0  0  0  0  0  0  0
    4.5610  -10.6403   24.1712 C   0  0  0  0  0  0  0  0  0  0  0  0
    4.0815  -11.6305   25.0215 N   0  0  0  0  0  0  0  0  0  0  0  0
    4.5157  -13.1068   25.1909 C   0  0  0  0  0  0  0  0  0  0  0  0
    5.2895  -13.7409   24.5907 O   0  0  0  0  0  0  0  0  0  0  0  0
    3.7145  -13.8023   26.2403 C   0  0  0  0  0  0  0  0  0  0  0  0
    2.3909  -13.4613   26.5083 C   0  0  0  0  0  0  0  0  0  0  0  0
    1.7360  -14.1665   27.4982 C   0  0  0  0  0  0  0  0  0  0  0  0
    2.2812  -15.1748   28.2078 N   0  0  0  0  0  0  0  0  0  0  0  0
    3.5480  -15.5158   27.8821 C   0  0  0  0  0  0  0  0  0  0  0  0
    4.2985  -14.8703   26.9189 C   0  0  0  0  0  0  0  0  0  0  0  0
  1  2  1  0
  2  3  2  0
  3  4  1  0
  4  5  2  0
  5  6  1  0
  5  7  1  0
  7  8  2  0
  8  9  1  0
  9 10  1  0
 10 11  2  0
 10 12  1  0
 12 13  2  0
 13 14  1  0
 14 15  2  0
 15 16  1  0
 16 17  2  0
  8  2  1  0
 17 12  1  0
M  END
>  <inchikey>  (49) 
QLHGXZRAEKGXLM-UHFFFAOYSA-N

>  <tags>  (49) 
fragmenstein_placed,CpKRS_FrAncestor_bulkdock_iter2

>  <ref_pdb>  (49) 
x0540b

>  <energy_score>  (49) 
-5.473165

>  <distance_score>  (49) 
0.304706

>  <HIPPO Pose ID>  (49) 
52709

>  <ref_mols>  (49) 
x0485a

>  <smiles>  (49) 
Cc1ccc(Br)cc1NC(=O)c1ccncc1

>  <HIPPO Compound ID>  (49) 
158313

>  <alias>  (49) 
QLHGXZRAEKGXLM-UHFFFAOYSA-N-P30

>  <subsites>  (49) 


>  <placement_batch>  (49) 
CpKRS_FrAncestor_bulkdock_iter2

>  <name>  (49) 
QLHGXZRAEKGXLM-UHFFFAOYSA-N-P30

$$$$
FXNSWDXUWUJLLI-UHFFFAOYSA-N-P54
     RDKit          3D

 12 12  0  0  0  0  0  0  0  0999 V2000
    9.6515  -36.4302   10.5574 C   0  0  0  0  0  0  0  0  0  0  0  0
    8.5733  -37.2154   11.2489 C   0  0  0  0  0  0  0  0  0  0  0  0
    8.9297  -37.9826   12.3721 C   0  0  0  0  0  0  0  0  0  0  0  0
    7.9758  -38.7187   13.0794 C   0  0  0  0  0  0  0  0  0  0  0  0
    6.6474  -38.6972   12.6738 C   0  0  0  0  0  0  0  0  0  0  0  0
    5.3480  -39.6717   13.6391 Br  0  0  0  0  0  0  0  0  0  0  0  0
    6.2614  -37.9415   11.5714 C   0  0  0  0  0  0  0  0  0  0  0  0
    7.2173  -37.1895   10.8682 C   0  0  0  0  0  0  0  0  0  0  0  0
    6.6245  -36.1850    9.5288 S   0  0  0  0  0  0  0  0  0  0  0  0
    7.1973  -34.6346    9.8893 N   0  0  0  0  0  0  0  0  0  0  0  0
    7.2694  -36.5948    8.3066 O   0  0  0  0  0  0  0  0  0  0  0  0
    5.1888  -36.0578    9.6455 O   0  0  0  0  0  0  0  0  0  0  0  0
  1  2  1  0
  2  3  2  0
  3  4  1  0
  4  5  2  0
  5  6  1  0
  5  7  1  0
  7  8  2  0
  8  9  1  0
  9 10  1  0
  9 11  2  0
  9 12  2  0
  8  2  1  0
M  END
>  <inchikey>  (50) 
FXNSWDXUWUJLLI-UHFFFAOYSA-N

>  <tags>  (50) 
fragmenstein_placed,CpKRS_FrAncestor_bulkdock_iter2

>  <ref_pdb>  (50) 
x0540b

>  <energy_score>  (50) 
-32.879115

>  <distance_score>  (50) 
0.256583

>  <HIPPO Pose ID>  (50) 
52714

>  <ref_mols>  (50) 
x0639c

>  <smiles>  (50) 
Cc1ccc(Br)cc1S(N)(=O)=O

>  <HIPPO Compound ID>  (50) 
447513

>  <alias>  (50) 
FXNSWDXUWUJLLI-UHFFFAOYSA-N-P54

>  <subsites>  (50) 


>  <placement_batch>  (50) 
CpKRS_FrAncestor_bulkdock_iter2

>  <name>  (50) 
FXNSWDXUWUJLLI-UHFFFAOYSA-N-P54

$$$$
ZBPUHMFBRNVBBD-UHFFFAOYSA-N-P54
     RDKit          3D

 15 15  0  0  0  0  0  0  0  0999 V2000
    9.6392  -36.4866   10.7374 C   0  0  0  0  0  0  0  0  0  0  0  0
    8.6020  -37.3523   11.3975 C   0  0  0  0  0  0  0  0  0  0  0  0
    9.0043  -38.1747   12.4637 C   0  0  0  0  0  0  0  0  0  0  0  0
    8.0821  -38.9620   13.1580 C   0  0  0  0  0  0  0  0  0  0  0  0
    6.7400  -38.9344   12.7999 C   0  0  0  0  0  0  0  0  0  0  0  0
    5.4842  -39.9765   13.7522 Br  0  0  0  0  0  0  0  0  0  0  0  0
    6.3088  -38.1248   11.7555 C   0  0  0  0  0  0  0  0  0  0  0  0
    7.2352  -37.3367   11.0533 C   0  0  0  0  0  0  0  0  0  0  0  0
    6.5878  -36.2186    9.8231 S   0  0  0  0  0  0  0  0  0  0  0  0
    5.1490  -36.3526    9.7871 O   0  0  0  0  0  0  0  0  0  0  0  0
    7.1946  -34.9280   10.0802 O   0  0  0  0  0  0  0  0  0  0  0  0
    7.2259  -36.7827    8.3896 N   0  0  0  0  0  0  0  0  0  0  0  0
    6.6611  -37.8798    7.5907 C   0  0  0  0  0  0  0  0  0  0  0  0
    5.4821  -37.3826    6.7625 C   0  0  0  0  0  0  0  0  0  0  0  0
    6.3135  -39.1199    8.3971 C   0  0  0  0  0  0  0  0  0  0  0  0
  1  2  1  0
  2  3  2  0
  3  4  1  0
  4  5  2  0
  5  6  1  0
  5  7  1  0
  7  8  2  0
  8  9  1  0
  9 10  2  0
  9 11  2  0
  9 12  1  0
 12 13  1  0
 13 14  1  0
 13 15  1  0
  8  2  1  0
M  END
>  <inchikey>  (51) 
ZBPUHMFBRNVBBD-UHFFFAOYSA-N

>  <tags>  (51) 
fragmenstein_placed,CpKRS_FrAncestor_bulkdock_iter2

>  <ref_pdb>  (51) 
x0540b

>  <energy_score>  (51) 
-45.431107

>  <distance_score>  (51) 
0.246102

>  <HIPPO Pose ID>  (51) 
52717

>  <ref_mols>  (51) 
x0639c

>  <smiles>  (51) 
Cc1ccc(Br)cc1S(=O)(=O)NC(C)C

>  <HIPPO Compound ID>  (51) 
312081

>  <alias>  (51) 
ZBPUHMFBRNVBBD-UHFFFAOYSA-N-P54

>  <subsites>  (51) 


>  <placement_batch>  (51) 
CpKRS_FrAncestor_bulkdock_iter2

>  <name>  (51) 
ZBPUHMFBRNVBBD-UHFFFAOYSA-N-P54

$$$$
NJWVEKSVJHDXEP-UHFFFAOYSA-N-P60
     RDKit          3D

 15 16  0  0  0  0  0  0  0  0999 V2000
   -0.0598  -26.1283   22.3917 C   0  0  0  0  0  0  0  0  0  0  0  0
   -1.0174  -25.9975   23.5449 C   0  0  0  0  0  0  0  0  0  0  0  0
   -1.1250  -24.7625   24.2031 C   0  0  0  0  0  0  0  0  0  0  0  0
   -1.9695  -24.5991   25.3005 C   0  0  0  0  0  0  0  0  0  0  0  0
   -2.7409  -25.6671   25.7314 C   0  0  0  0  0  0  0  0  0  0  0  0
   -3.8833  -25.4716   27.2189 Br  0  0  0  0  0  0  0  0  0  0  0  0
   -2.6896  -26.8867   25.0638 C   0  0  0  0  0  0  0  0  0  0  0  0
   -1.8290  -27.0707   23.9649 C   0  0  0  0  0  0  0  0  0  0  0  0
   -1.8237  -28.4166   23.2669 C   0  0  0  0  0  0  0  0  0  0  0  0
   -0.7089  -29.2976   23.6480 N   0  0  0  0  0  0  0  0  0  0  0  0
   -0.6733  -30.4682   22.7378 C   0  0  0  0  0  0  0  0  0  0  0  0
   -0.2911  -31.7786   23.4412 C   0  0  0  0  0  0  0  0  0  0  0  0
   -1.2297  -32.1204   24.4703 O   0  0  0  0  0  0  0  0  0  0  0  0
   -1.6333  -30.9926   25.2597 C   0  0  0  0  0  0  0  0  0  0  0  0
   -0.7638  -29.7441   25.0524 C   0  0  0  0  0  0  0  0  0  0  0  0
  1  2  1  0
  2  3  2  0
  3  4  1  0
  4  5  2  0
  5  6  1  0
  5  7  1  0
  7  8  2  0
  8  9  1  0
  9 10  1  0
 10 11  1  0
 11 12  1  0
 12 13  1  0
 13 14  1  0
 14 15  1  0
  8  2  1  0
 15 10  1  0
M  END
>  <inchikey>  (52) 
NJWVEKSVJHDXEP-UHFFFAOYSA-N

>  <tags>  (52) 
fragmenstein_placed,CpKRS_FrAncestor_bulkdock_iter2

>  <ref_pdb>  (52) 
x0540b

>  <energy_score>  (52) 
-24.317161

>  <distance_score>  (52) 
0.391161

>  <HIPPO Pose ID>  (52) 
52721

>  <ref_mols>  (52) 
x0675b

>  <smiles>  (52) 
Cc1ccc(Br)cc1CN1CCOCC1

>  <HIPPO Compound ID>  (52) 
324477

>  <alias>  (52) 
NJWVEKSVJHDXEP-UHFFFAOYSA-N-P60

>  <subsites>  (52) 


>  <placement_batch>  (52) 
CpKRS_FrAncestor_bulkdock_iter2

>  <name>  (52) 
NJWVEKSVJHDXEP-UHFFFAOYSA-N-P60

$$$$
JFLOKHODHACGDJ-NSHDSACASA-N-P60
     RDKit          3D

 16 17  0  0  0  0  0  0  0  0999 V2000
   -0.0519  -26.1136   22.3595 C   0  0  0  0  0  0  0  0  0  0  0  0
   -1.0084  -25.9960   23.5152 C   0  0  0  0  0  0  0  0  0  0  0  0
   -1.1237  -24.7651   24.1799 C   0  0  0  0  0  0  0  0  0  0  0  0
   -1.9616  -24.6160   25.2841 C   0  0  0  0  0  0  0  0  0  0  0  0
   -2.7165  -25.6951   25.7178 C   0  0  0  0  0  0  0  0  0  0  0  0
   -3.8475  -25.5144   27.2165 Br  0  0  0  0  0  0  0  0  0  0  0  0
   -2.6534  -26.9137   25.0477 C   0  0  0  0  0  0  0  0  0  0  0  0
   -1.7993  -27.0831   23.9412 C   0  0  0  0  0  0  0  0  0  0  0  0
   -1.7675  -28.4322   23.2470 C   0  0  0  0  0  0  0  0  0  0  0  0
   -0.6086  -29.2680   23.6047 N   0  0  0  0  0  0  0  0  0  0  0  0
   -0.6235  -29.6941   25.0146 C   0  0  0  0  0  0  0  0  0  0  0  0
   -1.5690  -30.8720   25.2997 C   0  0  0  0  0  0  0  0  0  0  0  0
   -1.4142  -31.9865   24.4113 O   0  0  0  0  0  0  0  0  0  0  0  0
   -0.3639  -31.7922   23.4575 C   0  0  0  0  0  0  0  0  0  0  0  0
   -0.5359  -30.4522   22.7062 C   0  0  2  0  0  0  0  0  0  0  0  0
    0.6151  -30.2447   21.7227 C   0  0  0  0  0  0  0  0  0  0  0  0
  1  2  1  0
  2  3  2  0
  3  4  1  0
  4  5  2  0
  5  6  1  0
  5  7  1  0
  7  8  2  0
  8  9  1  0
  9 10  1  0
 10 11  1  0
 11 12  1  0
 12 13  1  0
 13 14  1  0
 14 15  1  0
 15 16  1  6
  8  2  1  0
 15 10  1  0
M  END
>  <inchikey>  (53) 
JFLOKHODHACGDJ-UHFFFAOYSA-N

>  <tags>  (53) 
fragmenstein_placed,CpKRS_FrAncestor_bulkdock_iter2

>  <ref_pdb>  (53) 
x0540b

>  <energy_score>  (53) 
-28.806591

>  <distance_score>  (53) 
0.35652

>  <HIPPO Pose ID>  (53) 
52723

>  <ref_mols>  (53) 
x0675b

>  <smiles>  (53) 
Cc1ccc(Br)cc1CN1CCOC[C@@H]1C

>  <HIPPO Compound ID>  (53) 
139921

>  <alias>  (53) 
JFLOKHODHACGDJ-NSHDSACASA-N-P60

>  <subsites>  (53) 


>  <placement_batch>  (53) 
CpKRS_FrAncestor_bulkdock_iter2

>  <name>  (53) 
JFLOKHODHACGDJ-NSHDSACASA-N-P60

$$$$
BGHRUCYUCYPVBX-UHFFFAOYSA-N-P59
     RDKit          3D

 16 17  0  0  0  0  0  0  0  0999 V2000
    6.7157  -22.6451   20.0705 C   0  0  0  0  0  0  0  0  0  0  0  0
    5.4998  -21.9724   20.5956 C   0  0  0  0  0  0  0  0  0  0  0  0
    5.6302  -20.6091   20.8287 C   0  0  0  0  0  0  0  0  0  0  0  0
    4.6566  -19.9589   21.5432 C   0  0  0  0  0  0  0  0  0  0  0  0
    3.5727  -20.6537   22.0659 C   0  0  0  0  0  0  0  0  0  0  0  0
    2.4813  -19.6833   23.2589 Br  0  0  0  0  0  0  0  0  0  0  0  0
    3.3207  -21.9825   21.6964 C   0  0  0  0  0  0  0  0  0  0  0  0
    1.9813  -22.6396   21.9365 C   0  0  0  0  0  0  0  0  0  0  0  0
    4.3171  -22.6682   20.9612 C   0  0  0  0  0  0  0  0  0  0  0  0
    4.1130  -24.1380   20.6407 C   0  0  0  0  0  0  0  0  0  0  0  0
    3.0791  -24.3715   19.6328 N   0  0  0  0  0  0  0  0  0  0  0  0
    3.4673  -23.9161   18.2865 C   0  0  0  0  0  0  0  0  0  0  0  0
    2.5588  -24.5393   17.2199 C   0  0  0  0  0  0  0  0  0  0  0  0
    2.7115  -25.9666   17.1454 O   0  0  0  0  0  0  0  0  0  0  0  0
    3.0313  -26.5624   18.4112 C   0  0  0  0  0  0  0  0  0  0  0  0
    2.5684  -25.7512   19.6251 C   0  0  0  0  0  0  0  0  0  0  0  0
  1  2  1  0
  2  3  2  0
  3  4  1  0
  4  5  2  0
  5  6  1  0
  5  7  1  0
  7  8  1  0
  7  9  2  0
  9 10  1  0
 10 11  1  0
 11 12  1  0
 12 13  1  0
 13 14  1  0
 14 15  1  0
 15 16  1  0
  9  2  1  0
 16 11  1  0
M  END
>  <inchikey>  (54) 
BGHRUCYUCYPVBX-UHFFFAOYSA-N

>  <tags>  (54) 
fragmenstein_placed,CpKRS_FrAncestor_bulkdock_iter2

>  <ref_pdb>  (54) 
x0540b

>  <energy_score>  (54) 
-15.065819

>  <distance_score>  (54) 
0.404328

>  <HIPPO Pose ID>  (54) 
52726

>  <ref_mols>  (54) 
x0675a

>  <smiles>  (54) 
Cc1ccc(Br)c(C)c1CN1CCOCC1

>  <HIPPO Compound ID>  (54) 
139774

>  <alias>  (54) 
BGHRUCYUCYPVBX-UHFFFAOYSA-N-P59

>  <subsites>  (54) 


>  <placement_batch>  (54) 
CpKRS_FrAncestor_bulkdock_iter2

>  <name>  (54) 
BGHRUCYUCYPVBX-UHFFFAOYSA-N-P59

$$$$
FXBSNIBJRYTRNU-MRVPVSSYSA-N-P20
     RDKit          3D

 16 17  0  0  0  0  0  0  0  0999 V2000
    4.3221    9.5349   40.8174 C   0  0  0  0  0  0  0  0  0  0  0  0
    4.6380    8.0708   40.8338 C   0  0  0  0  0  0  0  0  0  0  0  0
    5.5528    7.5594   39.9208 C   0  0  0  0  0  0  0  0  0  0  0  0
    5.9325    6.2289   40.0272 C   0  0  0  0  0  0  0  0  0  0  0  0
    5.3754    5.4342   41.0271 C   0  0  0  0  0  0  0  0  0  0  0  0
    6.3347    3.8535   41.4242 Br  0  0  0  0  0  0  0  0  0  0  0  0
    4.3733    5.9833   41.8319 C   0  0  0  0  0  0  0  0  0  0  0  0
    3.6425    5.2006   42.9090 C   0  0  0  0  0  0  0  0  0  0  0  0
    3.6230    4.0363   42.8649 O   0  0  0  0  0  0  0  0  0  0  0  0
    3.0291    6.1729   43.9393 N   0  0  0  0  0  0  0  0  0  0  0  0
    2.1824    5.9181   45.0795 C   0  0  2  0  0  0  0  0  0  0  0  0
    1.5461    7.1811   45.6374 C   0  0  0  0  0  0  0  0  0  0  0  0
    2.9900    5.2316   46.1454 C   0  0  0  0  0  0  0  0  0  0  0  0
    3.2733    3.7562   46.0539 C   0  0  0  0  0  0  0  0  0  0  0  0
    2.3273    4.2674   47.1012 C   0  0  0  0  0  0  0  0  0  0  0  0
    4.0364    7.3105   41.7815 N   0  0  0  0  0  0  0  0  0  0  0  0
  1  2  1  0
  2  3  2  0
  3  4  1  0
  4  5  2  0
  5  6  1  0
  5  7  1  0
  7  8  1  0
  8  9  2  0
  8 10  1  0
 10 11  1  0
 11 12  1  1
 11 13  1  0
 13 14  1  0
 14 15  1  0
  7 16  2  0
 16  2  1  0
 15 13  1  0
M  END
>  <inchikey>  (55) 
FXBSNIBJRYTRNU-UHFFFAOYSA-N

>  <tags>  (55) 
fragmenstein_placed,CpKRS_FrAncestor_bulkdock_iter2

>  <ref_pdb>  (55) 
x0540b

>  <energy_score>  (55) 
-18.675237

>  <distance_score>  (55) 
0.448825

>  <HIPPO Pose ID>  (55) 
52730

>  <ref_mols>  (55) 
x0456a

>  <smiles>  (55) 
Cc1ccc(Br)c(C(=O)N[C@H](C)C2CC2)n1

>  <HIPPO Compound ID>  (55) 
136569

>  <alias>  (55) 
FXBSNIBJRYTRNU-MRVPVSSYSA-N-P20

>  <subsites>  (55) 


>  <placement_batch>  (55) 
CpKRS_FrAncestor_bulkdock_iter2

>  <name>  (55) 
FXBSNIBJRYTRNU-MRVPVSSYSA-N-P20

$$$$
FQPMNZWYRPDPHA-UHFFFAOYSA-N-P22
     RDKit          3D

 14 14  0  0  0  0  0  0  0  0999 V2000
   24.6863    3.7292   26.2508 C   0  0  0  0  0  0  0  0  0  0  0  0
   24.8907    5.1939   26.0087 C   0  0  0  0  0  0  0  0  0  0  0  0
   26.0186    5.8345   26.5214 C   0  0  0  0  0  0  0  0  0  0  0  0
   26.2673    7.1668   26.2052 C   0  0  0  0  0  0  0  0  0  0  0  0
   25.3899    7.8737   25.3752 C   0  0  0  0  0  0  0  0  0  0  0  0
   25.9062    9.6426   24.9025 Br  0  0  0  0  0  0  0  0  0  0  0  0
   24.2228    7.2682   24.8835 C   0  0  0  0  0  0  0  0  0  0  0  0
   23.2158    8.0065   24.0334 C   0  0  0  0  0  0  0  0  0  0  0  0
   22.3712    8.7616   24.8819 O   0  0  0  0  0  0  0  0  0  0  0  0
   21.8174   10.1891   24.3680 S   0  0  0  0  0  0  0  0  0  0  0  0
   20.8159    9.8096   23.0802 N   0  0  0  0  0  0  0  0  0  0  0  0
   22.8813   10.9817   23.8013 O   0  0  0  0  0  0  0  0  0  0  0  0
   20.9271   10.7385   25.3685 O   0  0  0  0  0  0  0  0  0  0  0  0
   23.9902    5.9177   25.2101 C   0  0  0  0  0  0  0  0  0  0  0  0
  1  2  1  0
  2  3  2  0
  3  4  1  0
  4  5  2  0
  5  6  1  0
  5  7  1  0
  7  8  1  0
  8  9  1  0
  9 10  1  0
 10 11  1  0
 10 12  2  0
 10 13  2  0
  7 14  2  0
 14  2  1  0
M  END
>  <inchikey>  (56) 
FQPMNZWYRPDPHA-UHFFFAOYSA-N

>  <tags>  (56) 
fragmenstein_placed,CpKRS_FrAncestor_bulkdock_iter2

>  <ref_pdb>  (56) 
x0540b

>  <energy_score>  (56) 
-29.09656

>  <distance_score>  (56) 
0.412712

>  <HIPPO Pose ID>  (56) 
52733

>  <ref_mols>  (56) 
x0472b

>  <smiles>  (56) 
Cc1ccc(Br)c(COS(N)(=O)=O)c1

>  <HIPPO Compound ID>  (56) 
447515

>  <alias>  (56) 
FQPMNZWYRPDPHA-UHFFFAOYSA-N-P22

>  <subsites>  (56) 


>  <placement_batch>  (56) 
CpKRS_FrAncestor_bulkdock_iter2

>  <name>  (56) 
FQPMNZWYRPDPHA-UHFFFAOYSA-N-P22

$$$$
OVQDUVODQKWVQI-UHFFFAOYSA-N-P60
     RDKit          3D

 15 16  0  0  0  0  0  0  0  0999 V2000
   -3.6452  -25.4552   27.0690 C   0  0  0  0  0  0  0  0  0  0  0  0
   -2.7877  -25.6164   25.8506 C   0  0  0  0  0  0  0  0  0  0  0  0
   -2.0065  -24.5556   25.3963 C   0  0  0  0  0  0  0  0  0  0  0  0
   -1.1837  -24.7143   24.2815 C   0  0  0  0  0  0  0  0  0  0  0  0
   -1.1042  -25.9432   23.6225 C   0  0  0  0  0  0  0  0  0  0  0  0
    0.0715  -26.0522   22.1348 Br  0  0  0  0  0  0  0  0  0  0  0  0
   -1.8866  -27.0244   24.0520 C   0  0  0  0  0  0  0  0  0  0  0  0
   -1.8926  -28.3689   23.3559 C   0  0  0  0  0  0  0  0  0  0  0  0
   -0.7752  -29.2520   23.7259 N   0  0  0  0  0  0  0  0  0  0  0  0
   -0.7072  -30.3871   22.7726 C   0  0  0  0  0  0  0  0  0  0  0  0
   -0.2699  -31.7051   23.4280 C   0  0  0  0  0  0  0  0  0  0  0  0
   -1.1883  -32.1240   24.4487 O   0  0  0  0  0  0  0  0  0  0  0  0
   -1.6753  -31.0373   25.2473 C   0  0  0  0  0  0  0  0  0  0  0  0
   -0.8498  -29.7507   25.1107 C   0  0  0  0  0  0  0  0  0  0  0  0
   -2.7236  -26.8401   25.1736 C   0  0  0  0  0  0  0  0  0  0  0  0
  1  2  1  0
  2  3  2  0
  3  4  1  0
  4  5  2  0
  5  6  1  0
  5  7  1  0
  7  8  1  0
  8  9  1  0
  9 10  1  0
 10 11  1  0
 11 12  1  0
 12 13  1  0
 13 14  1  0
  7 15  2  0
 15  2  1  0
 14  9  1  0
M  END
>  <inchikey>  (57) 
OVQDUVODQKWVQI-UHFFFAOYSA-N

>  <tags>  (57) 
fragmenstein_placed,CpKRS_FrAncestor_bulkdock_iter2

>  <ref_pdb>  (57) 
x0540b

>  <energy_score>  (57) 
-24.167924

>  <distance_score>  (57) 
0.392995

>  <HIPPO Pose ID>  (57) 
52736

>  <ref_mols>  (57) 
x0675b

>  <smiles>  (57) 
Cc1ccc(Br)c(CN2CCOCC2)c1

>  <HIPPO Compound ID>  (57) 
324481

>  <alias>  (57) 
OVQDUVODQKWVQI-UHFFFAOYSA-N-P60

>  <subsites>  (57) 


>  <placement_batch>  (57) 
CpKRS_FrAncestor_bulkdock_iter2

>  <name>  (57) 
OVQDUVODQKWVQI-UHFFFAOYSA-N-P60

$$$$
GMKNUTKXAQNIRA-NSHDSACASA-N-P60
     RDKit          3D

 16 17  0  0  0  0  0  0  0  0999 V2000
   -3.6570  -25.5015   27.0531 C   0  0  0  0  0  0  0  0  0  0  0  0
   -2.7853  -25.6427   25.8421 C   0  0  0  0  0  0  0  0  0  0  0  0
   -2.0187  -24.5658   25.4006 C   0  0  0  0  0  0  0  0  0  0  0  0
   -1.1900  -24.7027   24.2873 C   0  0  0  0  0  0  0  0  0  0  0  0
   -1.0903  -25.9239   23.6160 C   0  0  0  0  0  0  0  0  0  0  0  0
    0.0870  -25.9936   22.1277 Br  0  0  0  0  0  0  0  0  0  0  0  0
   -1.8554  -27.0224   24.0334 C   0  0  0  0  0  0  0  0  0  0  0  0
   -1.8356  -28.3630   23.3252 C   0  0  0  0  0  0  0  0  0  0  0  0
   -0.6926  -29.2238   23.6786 N   0  0  0  0  0  0  0  0  0  0  0  0
   -0.7337  -29.6957   25.0728 C   0  0  0  0  0  0  0  0  0  0  0  0
   -1.6480  -30.9109   25.2877 C   0  0  0  0  0  0  0  0  0  0  0  0
   -1.3775  -32.0157   24.4168 O   0  0  0  0  0  0  0  0  0  0  0  0
   -0.3575  -31.7292   23.4518 C   0  0  0  0  0  0  0  0  0  0  0  0
   -0.6144  -30.3801   22.7422 C   0  0  2  0  0  0  0  0  0  0  0  0
    0.4834  -30.1103   21.7138 C   0  0  0  0  0  0  0  0  0  0  0  0
   -2.6980  -26.8608   25.1553 C   0  0  0  0  0  0  0  0  0  0  0  0
  1  2  1  0
  2  3  2  0
  3  4  1  0
  4  5  2  0
  5  6  1  0
  5  7  1  0
  7  8  1  0
  8  9  1  0
  9 10  1  0
 10 11  1  0
 11 12  1  0
 12 13  1  0
 13 14  1  0
 14 15  1  6
  7 16  2  0
 16  2  1  0
 14  9  1  0
M  END
>  <inchikey>  (58) 
GMKNUTKXAQNIRA-UHFFFAOYSA-N

>  <tags>  (58) 
fragmenstein_placed,CpKRS_FrAncestor_bulkdock_iter2

>  <ref_pdb>  (58) 
x0540b

>  <energy_score>  (58) 
-28.71741

>  <distance_score>  (58) 
0.348146

>  <HIPPO Pose ID>  (58) 
52740

>  <ref_mols>  (58) 
x0675b

>  <smiles>  (58) 
Cc1ccc(Br)c(CN2CCOC[C@@H]2C)c1

>  <HIPPO Compound ID>  (58) 
139948

>  <alias>  (58) 
GMKNUTKXAQNIRA-NSHDSACASA-N-P60

>  <subsites>  (58) 


>  <placement_batch>  (58) 
CpKRS_FrAncestor_bulkdock_iter2

>  <name>  (58) 
GMKNUTKXAQNIRA-NSHDSACASA-N-P60

$$$$
RZEBGJKCTQOVJJ-UHFFFAOYSA-N-P28
     RDKit          3D

 18 19  0  0  0  0  0  0  0  0999 V2000
    4.8405    2.0822   44.2245 C   0  0  0  0  0  0  0  0  0  0  0  0
    4.0280    3.2138   44.7687 C   0  0  0  0  0  0  0  0  0  0  0  0
    3.5855    3.2340   46.0955 C   0  0  0  0  0  0  0  0  0  0  0  0
    2.8319    4.3069   46.5664 C   0  0  0  0  0  0  0  0  0  0  0  0
    2.5653    5.3846   45.7233 C   0  0  0  0  0  0  0  0  0  0  0  0
    1.4719    6.7879   46.3560 Br  0  0  0  0  0  0  0  0  0  0  0  0
    3.0166    5.3788   44.4018 C   0  0  0  0  0  0  0  0  0  0  0  0
    2.8676    6.4945   43.5901 N   0  0  0  0  0  0  0  0  0  0  0  0
    2.7819    6.6122   42.0519 C   0  0  0  0  0  0  0  0  0  0  0  0
    2.7457    5.7838   41.2308 O   0  0  0  0  0  0  0  0  0  0  0  0
    2.8573    8.0365   41.6456 C   0  0  0  0  0  0  0  0  0  0  0  0
    1.8883    8.9240   42.1187 C   0  0  0  0  0  0  0  0  0  0  0  0
    1.9899   10.2500   41.7421 C   0  0  0  0  0  0  0  0  0  0  0  0
    2.9667   10.7309   40.9426 N   0  0  0  0  0  0  0  0  0  0  0  0
    3.8905    9.8415   40.4973 C   0  0  0  0  0  0  0  0  0  0  0  0
    3.8861    8.4937   40.8196 C   0  0  0  0  0  0  0  0  0  0  0  0
    5.2942    7.4082   40.1754 Br  0  0  0  0  0  0  0  0  0  0  0  0
    3.7103    4.2758   43.9157 C   0  0  0  0  0  0  0  0  0  0  0  0
  1  2  1  0
  2  3  2  0
  3  4  1  0
  4  5  2  0
  5  6  1  0
  5  7  1  0
  7  8  1  0
  8  9  1  0
  9 10  2  0
  9 11  1  0
 11 12  2  0
 12 13  1  0
 13 14  2  0
 14 15  1  0
 15 16  2  0
 16 17  1  0
  7 18  2  0
 18  2  1  0
 16 11  1  0
M  END
>  <inchikey>  (59) 
RZEBGJKCTQOVJJ-UHFFFAOYSA-N

>  <tags>  (59) 
fragmenstein_placed,CpKRS_FrAncestor_bulkdock_iter2

>  <ref_pdb>  (59) 
x0540b

>  <energy_score>  (59) 
-13.336479

>  <distance_score>  (59) 
0.403771

>  <HIPPO Pose ID>  (59) 
52747

>  <ref_mols>  (59) 
x0485b

>  <smiles>  (59) 
Cc1ccc(Br)c(NC(=O)c2ccncc2Br)c1

>  <HIPPO Compound ID>  (59) 
157941

>  <alias>  (59) 
RZEBGJKCTQOVJJ-UHFFFAOYSA-N-P28

>  <subsites>  (59) 


>  <placement_batch>  (59) 
CpKRS_FrAncestor_bulkdock_iter2

>  <name>  (59) 
RZEBGJKCTQOVJJ-UHFFFAOYSA-N-P28

$$$$
CLBBNKGNDUQLGD-UHFFFAOYSA-N-P29
     RDKit          3D

 17 18  0  0  0  0  0  0  0  0999 V2000
    4.7417    2.0299   44.0472 C   0  0  0  0  0  0  0  0  0  0  0  0
    4.0286    3.1771   44.6954 C   0  0  0  0  0  0  0  0  0  0  0  0
    3.6905    3.1555   46.0506 C   0  0  0  0  0  0  0  0  0  0  0  0
    3.0195    4.2311   46.6222 C   0  0  0  0  0  0  0  0  0  0  0  0
    2.7429    5.3618   45.8526 C   0  0  0  0  0  0  0  0  0  0  0  0
    1.7942    6.7634   46.6876 Br  0  0  0  0  0  0  0  0  0  0  0  0
    3.1136    5.4192   44.5033 C   0  0  0  0  0  0  0  0  0  0  0  0
    2.9493    6.5851   43.7510 N   0  0  0  0  0  0  0  0  0  0  0  0
    3.1907    6.8527   42.2440 C   0  0  0  0  0  0  0  0  0  0  0  0
    3.4905    6.1207   41.3829 O   0  0  0  0  0  0  0  0  0  0  0  0
    3.0160    8.2867   41.8828 C   0  0  0  0  0  0  0  0  0  0  0  0
    3.8538    8.8212   40.9006 C   0  0  0  0  0  0  0  0  0  0  0  0
    3.6386   10.1260   40.5013 C   0  0  0  0  0  0  0  0  0  0  0  0
    2.6633   10.9073   41.0095 N   0  0  0  0  0  0  0  0  0  0  0  0
    1.8797   10.3684   41.9702 C   0  0  0  0  0  0  0  0  0  0  0  0
    2.0086    9.0721   42.4321 C   0  0  0  0  0  0  0  0  0  0  0  0
    3.7082    4.2999   43.9220 C   0  0  0  0  0  0  0  0  0  0  0  0
  1  2  1  0
  2  3  2  0
  3  4  1  0
  4  5  2  0
  5  6  1  0
  5  7  1  0
  7  8  1  0
  8  9  1  0
  9 10  2  0
  9 11  1  0
 11 12  2  0
 12 13  1  0
 13 14  2  0
 14 15  1  0
 15 16  2  0
  7 17  2  0
 17  2  1  0
 16 11  1  0
M  END
>  <inchikey>  (60) 
CLBBNKGNDUQLGD-UHFFFAOYSA-N

>  <tags>  (60) 
fragmenstein_placed,CpKRS_FrAncestor_bulkdock_iter2

>  <ref_pdb>  (60) 
x0540b

>  <energy_score>  (60) 
-14.981397

>  <distance_score>  (60) 
0.459437

>  <HIPPO Pose ID>  (60) 
52751

>  <ref_mols>  (60) 
x0485c

>  <smiles>  (60) 
Cc1ccc(Br)c(NC(=O)c2ccncc2)c1

>  <HIPPO Compound ID>  (60) 
157940

>  <alias>  (60) 
CLBBNKGNDUQLGD-UHFFFAOYSA-N-P29

>  <subsites>  (60) 


>  <placement_batch>  (60) 
CpKRS_FrAncestor_bulkdock_iter2

>  <name>  (60) 
CLBBNKGNDUQLGD-UHFFFAOYSA-N-P29

$$$$
WKIPMARBENEFGH-UHFFFAOYSA-N-P29
     RDKit          3D

 18 19  0  0  0  0  0  0  0  0999 V2000
    4.7280    2.0285   44.0536 C   0  0  0  0  0  0  0  0  0  0  0  0
    4.0174    3.1792   44.6981 C   0  0  0  0  0  0  0  0  0  0  0  0
    3.6851    3.1668   46.0545 C   0  0  0  0  0  0  0  0  0  0  0  0
    3.0232    4.2501   46.6229 C   0  0  0  0  0  0  0  0  0  0  0  0
    2.7507    5.3796   45.8494 C   0  0  0  0  0  0  0  0  0  0  0  0
    1.8053    6.7854   46.6799 Br  0  0  0  0  0  0  0  0  0  0  0  0
    3.1117    5.4255   44.4977 C   0  0  0  0  0  0  0  0  0  0  0  0
    2.9609    6.5853   43.7334 N   0  0  0  0  0  0  0  0  0  0  0  0
    3.1268    6.8151   42.2093 C   0  0  0  0  0  0  0  0  0  0  0  0
    3.3396    6.0547   41.3475 O   0  0  0  0  0  0  0  0  0  0  0  0
    3.0213    8.2592   41.8478 C   0  0  0  0  0  0  0  0  0  0  0  0
    1.9593    9.0087   42.3514 C   0  0  0  0  0  0  0  0  0  0  0  0
    1.8247   10.3158   41.9284 C   0  0  0  0  0  0  0  0  0  0  0  0
    2.6493   10.9013   41.0365 N   0  0  0  0  0  0  0  0  0  0  0  0
    3.6774   10.1579   40.5713 C   0  0  0  0  0  0  0  0  0  0  0  0
    3.9284    8.8434   40.9475 C   0  0  0  0  0  0  0  0  0  0  0  0
    5.0948    8.1159   40.3473 C   0  0  0  0  0  0  0  0  0  0  0  0
    3.6954    4.2979   43.9198 C   0  0  0  0  0  0  0  0  0  0  0  0
  1  2  1  0
  2  3  2  0
  3  4  1  0
  4  5  2  0
  5  6  1  0
  5  7  1  0
  7  8  1  0
  8  9  1  0
  9 10  2  0
  9 11  1  0
 11 12  2  0
 12 13  1  0
 13 14  2  0
 14 15  1  0
 15 16  2  0
 16 17  1  0
  7 18  2  0
 18  2  1  0
 16 11  1  0
M  END
>  <inchikey>  (61) 
WKIPMARBENEFGH-UHFFFAOYSA-N

>  <tags>  (61) 
fragmenstein_placed,CpKRS_FrAncestor_bulkdock_iter2

>  <ref_pdb>  (61) 
x0540b

>  <energy_score>  (61) 
-14.453424

>  <distance_score>  (61) 
0.462152

>  <HIPPO Pose ID>  (61) 
52754

>  <ref_mols>  (61) 
x0485c

>  <smiles>  (61) 
Cc1ccc(Br)c(NC(=O)c2ccncc2C)c1

>  <HIPPO Compound ID>  (61) 
152883

>  <alias>  (61) 
WKIPMARBENEFGH-UHFFFAOYSA-N-P29

>  <subsites>  (61) 


>  <placement_batch>  (61) 
CpKRS_FrAncestor_bulkdock_iter2

>  <name>  (61) 
WKIPMARBENEFGH-UHFFFAOYSA-N-P29

$$$$
IRSSYPPBLRXQRO-UHFFFAOYSA-N-P30
     RDKit          3D

 18 19  0  0  0  0  0  0  0  0999 V2000
    5.8320   -6.8276   24.9024 C   0  0  0  0  0  0  0  0  0  0  0  0
    5.3763   -8.0610   24.1887 C   0  0  0  0  0  0  0  0  0  0  0  0
    5.6291   -8.2177   22.8276 C   0  0  0  0  0  0  0  0  0  0  0  0
    5.3972   -9.4375   22.2090 C   0  0  0  0  0  0  0  0  0  0  0  0
    4.9113  -10.5124   22.9520 C   0  0  0  0  0  0  0  0  0  0  0  0
    4.5215  -12.0697   21.9901 Br  0  0  0  0  0  0  0  0  0  0  0  0
    4.5933  -10.3570   24.3014 C   0  0  0  0  0  0  0  0  0  0  0  0
    4.1045  -11.3814   25.1124 N   0  0  0  0  0  0  0  0  0  0  0  0
    4.4844  -12.8832   25.1764 C   0  0  0  0  0  0  0  0  0  0  0  0
    5.3184  -13.4775   24.6144 O   0  0  0  0  0  0  0  0  0  0  0  0
    3.6576  -13.6501   26.1582 C   0  0  0  0  0  0  0  0  0  0  0  0
    4.2941  -14.7257   26.7979 C   0  0  0  0  0  0  0  0  0  0  0  0
    3.5992  -15.4525   27.7481 C   0  0  0  0  0  0  0  0  0  0  0  0
    2.3307  -15.1820   28.1140 N   0  0  0  0  0  0  0  0  0  0  0  0
    1.7314  -14.1709   27.4460 C   0  0  0  0  0  0  0  0  0  0  0  0
    2.3241  -13.3943   26.4595 C   0  0  0  0  0  0  0  0  0  0  0  0
    1.3310  -12.2234   25.6790 Cl  0  0  0  0  0  0  0  0  0  0  0  0
    4.7735   -9.1056   24.8948 C   0  0  0  0  0  0  0  0  0  0  0  0
  1  2  1  0
  2  3  2  0
  3  4  1  0
  4  5  2  0
  5  6  1  0
  5  7  1  0
  7  8  1  0
  8  9  1  0
  9 10  2  0
  9 11  1  0
 11 12  2  0
 12 13  1  0
 13 14  2  0
 14 15  1  0
 15 16  2  0
 16 17  1  0
  7 18  2  0
 18  2  1  0
 16 11  1  0
M  END
>  <inchikey>  (62) 
IRSSYPPBLRXQRO-UHFFFAOYSA-N

>  <tags>  (62) 
fragmenstein_placed,CpKRS_FrAncestor_bulkdock_iter2

>  <ref_pdb>  (62) 
x0540b

>  <energy_score>  (62) 
-3.116272

>  <distance_score>  (62) 
0.372733

>  <HIPPO Pose ID>  (62) 
52755

>  <ref_mols>  (62) 
x0485a

>  <smiles>  (62) 
Cc1ccc(Br)c(NC(=O)c2ccncc2Cl)c1

>  <HIPPO Compound ID>  (62) 
157942

>  <alias>  (62) 
IRSSYPPBLRXQRO-UHFFFAOYSA-N-P30

>  <subsites>  (62) 


>  <placement_batch>  (62) 
CpKRS_FrAncestor_bulkdock_iter2

>  <name>  (62) 
IRSSYPPBLRXQRO-UHFFFAOYSA-N-P30

$$$$
DYIZUURAIIQWEE-UHFFFAOYSA-N-P30
     RDKit          3D

 18 19  0  0  0  0  0  0  0  0999 V2000
    5.7918   -6.8301   24.9112 C   0  0  0  0  0  0  0  0  0  0  0  0
    5.3389   -8.0628   24.1943 C   0  0  0  0  0  0  0  0  0  0  0  0
    5.6172   -8.2276   22.8382 C   0  0  0  0  0  0  0  0  0  0  0  0
    5.3950   -9.4506   22.2216 C   0  0  0  0  0  0  0  0  0  0  0  0
    4.8965  -10.5201   22.9632 C   0  0  0  0  0  0  0  0  0  0  0  0
    4.5483  -12.0992   22.0200 Br  0  0  0  0  0  0  0  0  0  0  0  0
    4.5481  -10.3536   24.3037 C   0  0  0  0  0  0  0  0  0  0  0  0
    4.0725  -11.3831   25.1136 N   0  0  0  0  0  0  0  0  0  0  0  0
    4.5296  -12.8610   25.2374 C   0  0  0  0  0  0  0  0  0  0  0  0
    5.4242  -13.4213   24.7358 O   0  0  0  0  0  0  0  0  0  0  0  0
    3.7000  -13.6493   26.1934 C   0  0  0  0  0  0  0  0  0  0  0  0
    4.2546  -14.8057   26.7544 C   0  0  0  0  0  0  0  0  0  0  0  0
    3.5030  -15.5308   27.6630 C   0  0  0  0  0  0  0  0  0  0  0  0
    2.2516  -15.1930   28.0449 N   0  0  0  0  0  0  0  0  0  0  0  0
    1.7361  -14.0917   27.4571 C   0  0  0  0  0  0  0  0  0  0  0  0
    2.4072  -13.3001   26.5450 C   0  0  0  0  0  0  0  0  0  0  0  0
    1.7970  -12.2128   26.0531 F   0  0  0  0  0  0  0  0  0  0  0  0
    4.7184   -9.1008   24.8952 C   0  0  0  0  0  0  0  0  0  0  0  0
  1  2  1  0
  2  3  2  0
  3  4  1  0
  4  5  2  0
  5  6  1  0
  5  7  1  0
  7  8  1  0
  8  9  1  0
  9 10  2  0
  9 11  1  0
 11 12  2  0
 12 13  1  0
 13 14  2  0
 14 15  1  0
 15 16  2  0
 16 17  1  0
  7 18  2  0
 18  2  1  0
 16 11  1  0
M  END
>  <inchikey>  (63) 
DYIZUURAIIQWEE-UHFFFAOYSA-N

>  <tags>  (63) 
fragmenstein_placed,CpKRS_FrAncestor_bulkdock_iter2

>  <ref_pdb>  (63) 
x0540b

>  <energy_score>  (63) 
-3.305052

>  <distance_score>  (63) 
0.366807

>  <HIPPO Pose ID>  (63) 
52758

>  <ref_mols>  (63) 
x0485a

>  <smiles>  (63) 
Cc1ccc(Br)c(NC(=O)c2ccncc2F)c1

>  <HIPPO Compound ID>  (63) 
157943

>  <alias>  (63) 
DYIZUURAIIQWEE-UHFFFAOYSA-N-P30

>  <subsites>  (63) 


>  <placement_batch>  (63) 
CpKRS_FrAncestor_bulkdock_iter2

>  <name>  (63) 
DYIZUURAIIQWEE-UHFFFAOYSA-N-P30

$$$$
AERXIGDRPPOLHV-UHFFFAOYSA-N-P29
     RDKit          3D

 18 19  0  0  0  0  0  0  0  0999 V2000
    4.7438    2.0228   44.0760 C   0  0  0  0  0  0  0  0  0  0  0  0
    4.0304    3.1745   44.7154 C   0  0  0  0  0  0  0  0  0  0  0  0
    3.6720    3.1585   46.0646 C   0  0  0  0  0  0  0  0  0  0  0  0
    2.9977    4.2397   46.6223 C   0  0  0  0  0  0  0  0  0  0  0  0
    2.7364    5.3706   45.8460 C   0  0  0  0  0  0  0  0  0  0  0  0
    1.7933    6.7799   46.6733 Br  0  0  0  0  0  0  0  0  0  0  0  0
    3.1311    5.4240   44.5036 C   0  0  0  0  0  0  0  0  0  0  0  0
    2.9845    6.5829   43.7357 N   0  0  0  0  0  0  0  0  0  0  0  0
    3.3418    6.8599   42.2540 C   0  0  0  0  0  0  0  0  0  0  0  0
    3.7422    6.1408   41.4244 O   0  0  0  0  0  0  0  0  0  0  0  0
    3.1161    8.2766   41.8652 C   0  0  0  0  0  0  0  0  0  0  0  0
    4.0294    8.8741   40.9967 C   0  0  0  0  0  0  0  0  0  0  0  0
    3.7549   10.1511   40.5521 C   0  0  0  0  0  0  0  0  0  0  0  0
    2.6524   10.8436   40.9090 N   0  0  0  0  0  0  0  0  0  0  0  0
    1.7825   10.2516   41.7625 C   0  0  0  0  0  0  0  0  0  0  0  0
    0.5494   11.0205   42.1295 C   0  0  0  0  0  0  0  0  0  0  0  0
    1.9738    8.9681   42.2562 C   0  0  0  0  0  0  0  0  0  0  0  0
    3.7294    4.2983   43.9366 C   0  0  0  0  0  0  0  0  0  0  0  0
  1  2  1  0
  2  3  2  0
  3  4  1  0
  4  5  2  0
  5  6  1  0
  5  7  1  0
  7  8  1  0
  8  9  1  0
  9 10  2  0
  9 11  1  0
 11 12  2  0
 12 13  1  0
 13 14  2  0
 14 15  1  0
 15 16  1  0
 15 17  2  0
  7 18  2  0
 18  2  1  0
 17 11  1  0
M  END
>  <inchikey>  (64) 
AERXIGDRPPOLHV-UHFFFAOYSA-N

>  <tags>  (64) 
fragmenstein_placed,CpKRS_FrAncestor_bulkdock_iter2

>  <ref_pdb>  (64) 
x0540b

>  <energy_score>  (64) 
-17.228135

>  <distance_score>  (64) 
0.372629

>  <HIPPO Pose ID>  (64) 
52763

>  <ref_mols>  (64) 
x0485c

>  <smiles>  (64) 
Cc1ccc(Br)c(NC(=O)c2ccnc(C)c2)c1

>  <HIPPO Compound ID>  (64) 
152880

>  <alias>  (64) 
AERXIGDRPPOLHV-UHFFFAOYSA-N-P29

>  <subsites>  (64) 


>  <placement_batch>  (64) 
CpKRS_FrAncestor_bulkdock_iter2

>  <name>  (64) 
AERXIGDRPPOLHV-UHFFFAOYSA-N-P29

$$$$
IDQCDTNEEVQABW-UHFFFAOYSA-N-P52
     RDKit          3D

 12 12  0  0  0  0  0  0  0  0999 V2000
   26.9550    9.1133   24.3394 C   0  0  0  0  0  0  0  0  0  0  0  0
   25.5053    9.4354   24.1318 C   0  0  0  0  0  0  0  0  0  0  0  0
   25.1278   10.4676   23.2728 C   0  0  0  0  0  0  0  0  0  0  0  0
   23.7803   10.7889   23.1082 C   0  0  0  0  0  0  0  0  0  0  0  0
   22.7870   10.1091   23.8208 C   0  0  0  0  0  0  0  0  0  0  0  0
   21.0017   10.6720   23.5367 Br  0  0  0  0  0  0  0  0  0  0  0  0
   23.1561    9.0811   24.6866 C   0  0  0  0  0  0  0  0  0  0  0  0
   21.9654    8.1759   25.6307 S   0  0  0  0  0  0  0  0  0  0  0  0
   21.0612    7.4193   24.4516 N   0  0  0  0  0  0  0  0  0  0  0  0
   21.1160    9.1030   26.3416 O   0  0  0  0  0  0  0  0  0  0  0  0
   22.6626    7.1232   26.3375 O   0  0  0  0  0  0  0  0  0  0  0  0
   24.5128    8.7458   24.8379 C   0  0  0  0  0  0  0  0  0  0  0  0
  1  2  1  0
  2  3  2  0
  3  4  1  0
  4  5  2  0
  5  6  1  0
  5  7  1  0
  7  8  1  0
  8  9  1  0
  8 10  2  0
  8 11  2  0
  7 12  2  0
 12  2  1  0
M  END
>  <inchikey>  (65) 
IDQCDTNEEVQABW-UHFFFAOYSA-N

>  <tags>  (65) 
fragmenstein_placed,CpKRS_FrAncestor_bulkdock_iter2

>  <ref_pdb>  (65) 
x0540b

>  <energy_score>  (65) 
-26.317148

>  <distance_score>  (65) 
0.3188

>  <HIPPO Pose ID>  (65) 
52764

>  <ref_mols>  (65) 
x0639a

>  <smiles>  (65) 
Cc1ccc(Br)c(S(N)(=O)=O)c1

>  <HIPPO Compound ID>  (65) 
447517

>  <alias>  (65) 
IDQCDTNEEVQABW-UHFFFAOYSA-N-P52

>  <subsites>  (65) 


>  <placement_batch>  (65) 
CpKRS_FrAncestor_bulkdock_iter2

>  <name>  (65) 
IDQCDTNEEVQABW-UHFFFAOYSA-N-P52

$$$$
OEPBOLNXDLJAOM-UHFFFAOYSA-N-P54
     RDKit          3D

 15 15  0  0  0  0  0  0  0  0999 V2000
    5.7764  -39.8200   13.5594 C   0  0  0  0  0  0  0  0  0  0  0  0
    6.7487  -38.9870   12.7775 C   0  0  0  0  0  0  0  0  0  0  0  0
    8.0986  -38.9630   13.1343 C   0  0  0  0  0  0  0  0  0  0  0  0
    9.0015  -38.1526   12.4436 C   0  0  0  0  0  0  0  0  0  0  0  0
    8.5675  -37.3344   11.3958 C   0  0  0  0  0  0  0  0  0  0  0  0
    9.9018  -36.2865   10.5448 Br  0  0  0  0  0  0  0  0  0  0  0  0
    7.2140  -37.3360   11.0462 C   0  0  0  0  0  0  0  0  0  0  0  0
    6.5518  -36.2214    9.8338 S   0  0  0  0  0  0  0  0  0  0  0  0
    5.1204  -36.4248    9.7631 O   0  0  0  0  0  0  0  0  0  0  0  0
    7.0862  -34.9045   10.1094 O   0  0  0  0  0  0  0  0  0  0  0  0
    7.2160  -36.7638    8.4097 N   0  0  0  0  0  0  0  0  0  0  0  0
    6.7700  -38.0101    7.7906 C   0  0  0  0  0  0  0  0  0  0  0  0
    5.9090  -37.6796    6.5782 C   0  0  0  0  0  0  0  0  0  0  0  0
    7.9997  -38.8157    7.3880 C   0  0  0  0  0  0  0  0  0  0  0  0
    6.3088  -38.1617   11.7368 C   0  0  0  0  0  0  0  0  0  0  0  0
  1  2  1  0
  2  3  2  0
  3  4  1  0
  4  5  2  0
  5  6  1  0
  5  7  1  0
  7  8  1  0
  8  9  2  0
  8 10  2  0
  8 11  1  0
 11 12  1  0
 12 13  1  0
 12 14  1  0
  7 15  2  0
 15  2  1  0
M  END
>  <inchikey>  (66) 
OEPBOLNXDLJAOM-UHFFFAOYSA-N

>  <tags>  (66) 
fragmenstein_placed,CpKRS_FrAncestor_bulkdock_iter2

>  <ref_pdb>  (66) 
x0540b

>  <energy_score>  (66) 
-40.523167

>  <distance_score>  (66) 
0.206075

>  <HIPPO Pose ID>  (66) 
52769

>  <ref_mols>  (66) 
x0639c

>  <smiles>  (66) 
Cc1ccc(Br)c(S(=O)(=O)NC(C)C)c1

>  <HIPPO Compound ID>  (66) 
312101

>  <alias>  (66) 
OEPBOLNXDLJAOM-UHFFFAOYSA-N-P54

>  <subsites>  (66) 


>  <placement_batch>  (66) 
CpKRS_FrAncestor_bulkdock_iter2

>  <name>  (66) 
OEPBOLNXDLJAOM-UHFFFAOYSA-N-P54

$$$$
PQICUTCZUNBSSH-UHFFFAOYSA-N-P44
     RDKit          3D

 16 17  0  0  0  0  0  0  0  0999 V2000
  -15.0184  -14.9783   43.8012 C   0  0  0  0  0  0  0  0  0  0  0  0
  -13.7222  -15.6892   43.4473 C   0  0  2  0  0  0  0  0  0  0  0  0
  -13.7823  -17.1930   43.6950 C   0  0  0  0  0  0  0  0  0  0  0  0
  -12.3258  -17.6376   43.6683 C   0  0  0  0  0  0  0  0  0  0  0  0
  -11.4826  -16.3826   43.9011 C   0  0  0  0  0  0  0  0  0  0  0  0
  -12.4659  -15.2476   44.2208 C   0  0  2  0  0  0  0  0  0  0  0  0
  -12.6555  -15.0894   45.7373 C   0  0  0  0  0  0  0  0  0  0  0  0
  -11.5567  -14.3831   46.3510 N   0  0  0  0  0  0  0  0  0  0  0  0
  -11.1777  -12.8878   46.3083 C   0  0  0  0  0  0  0  0  0  0  0  0
  -11.7359  -11.9804   45.8347 O   0  0  0  0  0  0  0  0  0  0  0  0
   -9.9605  -12.6451   47.0879 C   0  0  0  0  0  0  0  0  0  0  0  0
   -9.4091  -13.3067   48.1735 C   0  0  0  0  0  0  0  0  0  0  0  0
   -8.2807  -12.7295   48.7321 N   0  0  0  0  0  0  0  0  0  0  0  0
   -7.9817  -11.6611   48.0391 C   0  0  0  0  0  0  0  0  0  0  0  0
   -6.6434  -10.6605   48.4307 Cl  0  0  0  0  0  0  0  0  0  0  0  0
   -8.9881  -11.2600   46.7369 S   0  0  0  0  0  0  0  0  0  0  0  0
  2  1  1  1
  2  3  1  0
  3  4  1  0
  4  5  1  0
  5  6  1  0
  6  7  1  1
  7  8  1  0
  8  9  1  0
  9 10  2  0
  9 11  1  0
 11 12  2  0
 12 13  1  0
 13 14  2  0
 14 15  1  0
 14 16  1  0
  6  2  1  0
 16 11  1  0
M  END
>  <inchikey>  (67) 
PQICUTCZUNBSSH-UHFFFAOYSA-N

>  <tags>  (67) 
fragmenstein_placed,CpKRS_FrAncestor_bulkdock_iter2

>  <ref_pdb>  (67) 
x0540b

>  <energy_score>  (67) 
-22.887764

>  <distance_score>  (67) 
0.335535

>  <HIPPO Pose ID>  (67) 
52771

>  <ref_mols>  (67) 
x0502b

>  <smiles>  (67) 
CC1CCCC1CNC(=O)c1cnc(Cl)s1

>  <HIPPO Compound ID>  (67) 
121795

>  <alias>  (67) 
PQICUTCZUNBSSH-UHFFFAOYSA-N-P44

>  <subsites>  (67) 


>  <placement_batch>  (67) 
CpKRS_FrAncestor_bulkdock_iter2

>  <name>  (67) 
PQICUTCZUNBSSH-UHFFFAOYSA-N-P44

$$$$
RLUBPYMLRKYBGP-UHFFFAOYSA-N-P44
     RDKit          3D

 15 16  0  0  0  0  0  0  0  0999 V2000
  -13.7651  -15.3014   42.0335 C   0  0  0  0  0  0  0  0  0  0  0  0
  -13.7134  -15.6623   43.5199 C   0  0  1  0  0  0  0  0  0  0  0  0
  -13.8051  -17.1717   43.7335 C   0  0  0  0  0  0  0  0  0  0  0  0
  -12.3783  -17.6843   43.5848 C   0  0  0  0  0  0  0  0  0  0  0  0
  -11.4576  -16.4808   43.7843 C   0  0  0  0  0  0  0  0  0  0  0  0
  -12.3594  -15.2962   44.1539 C   0  0  2  0  0  0  0  0  0  0  0  0
  -12.4652  -15.1347   45.6795 C   0  0  0  0  0  0  0  0  0  0  0  0
  -11.3477  -14.3998   46.2184 N   0  0  0  0  0  0  0  0  0  0  0  0
  -11.0231  -12.8915   46.1708 C   0  0  0  0  0  0  0  0  0  0  0  0
  -11.5683  -12.0184   45.6229 O   0  0  0  0  0  0  0  0  0  0  0  0
   -9.8616  -12.5934   47.0151 C   0  0  0  0  0  0  0  0  0  0  0  0
   -9.3528  -13.2174   48.1409 C   0  0  0  0  0  0  0  0  0  0  0  0
   -8.2572  -12.6127   48.7342 N   0  0  0  0  0  0  0  0  0  0  0  0
   -7.9267  -11.5501   48.0375 C   0  0  0  0  0  0  0  0  0  0  0  0
   -8.9085  -11.1942   46.6834 S   0  0  0  0  0  0  0  0  0  0  0  0
  2  1  1  6
  2  3  1  0
  3  4  1  0
  4  5  1  0
  5  6  1  0
  6  7  1  1
  7  8  1  0
  8  9  1  0
  9 10  2  0
  9 11  1  0
 11 12  2  0
 12 13  1  0
 13 14  2  0
 14 15  1  0
  6  2  1  0
 15 11  1  0
M  END
>  <inchikey>  (68) 
RLUBPYMLRKYBGP-UHFFFAOYSA-N

>  <tags>  (68) 
fragmenstein_placed,CpKRS_FrAncestor_bulkdock_iter2

>  <ref_pdb>  (68) 
x0540b

>  <energy_score>  (68) 
-30.385111

>  <distance_score>  (68) 
0.373856

>  <HIPPO Pose ID>  (68) 
52774

>  <ref_mols>  (68) 
x0502b

>  <smiles>  (68) 
CC1CCCC1CNC(=O)c1cncs1

>  <HIPPO Compound ID>  (68) 
447518

>  <alias>  (68) 
RLUBPYMLRKYBGP-UHFFFAOYSA-N-P44

>  <subsites>  (68) 


>  <placement_batch>  (68) 
CpKRS_FrAncestor_bulkdock_iter2

>  <name>  (68) 
RLUBPYMLRKYBGP-UHFFFAOYSA-N-P44

$$$$
DYSBAPNFYHPYBM-UHFFFAOYSA-N-P11
     RDKit          3D

 17 18  0  0  0  0  0  0  0  0999 V2000
    4.6033  -11.7819   21.7310 C   0  0  0  0  0  0  0  0  0  0  0  0
    5.0567  -10.7697   22.7415 C   0  0  1  0  0  0  0  0  0  0  0  0
    5.5211   -9.4457   22.1471 C   0  0  0  0  0  0  0  0  0  0  0  0
    5.5125   -8.4962   23.3463 C   0  0  0  0  0  0  0  0  0  0  0  0
    4.7591   -9.2274   24.4742 C   0  0  0  0  0  0  0  0  0  0  0  0
    3.9963  -10.3640   23.7793 C   0  0  1  0  0  0  0  0  0  0  0  0
    2.6940   -9.7992   23.1847 C   0  0  0  0  0  0  0  0  0  0  0  0
    3.6054  -11.4741   24.6204 N   0  0  0  0  0  0  0  0  0  0  0  0
    4.3878  -12.7371   25.0429 C   0  0  0  0  0  0  0  0  0  0  0  0
    5.4959  -13.0427   24.8418 O   0  0  0  0  0  0  0  0  0  0  0  0
    3.4472  -13.6063   25.7868 C   0  0  0  0  0  0  0  0  0  0  0  0
    2.1239  -13.3000   25.8433 N   0  0  0  0  0  0  0  0  0  0  0  0
    1.5998  -14.3148   26.5458 N   0  0  0  0  0  0  0  0  0  0  0  0
    0.1779  -14.3478   26.7538 C   0  0  0  0  0  0  0  0  0  0  0  0
    2.5076  -15.2073   27.0116 C   0  0  0  0  0  0  0  0  0  0  0  0
    3.7225  -14.7783   26.5375 C   0  0  0  0  0  0  0  0  0  0  0  0
    5.2202  -15.5046   26.8400 Cl  0  0  0  0  0  0  0  0  0  0  0  0
  2  1  1  6
  2  3  1  0
  3  4  1  0
  4  5  1  0
  5  6  1  0
  6  7  1  6
  6  8  1  0
  8  9  1  0
  9 10  2  0
  9 11  1  0
 11 12  2  0
 12 13  1  0
 13 14  1  0
 13 15  1  0
 15 16  2  0
 16 17  1  0
  6  2  1  0
 16 11  1  0
M  END
>  <inchikey>  (69) 
DYSBAPNFYHPYBM-UHFFFAOYSA-N

>  <tags>  (69) 
fragmenstein_placed,CpKRS_FrAncestor_bulkdock_iter2

>  <ref_pdb>  (69) 
x0540b

>  <energy_score>  (69) 
-21.098615

>  <distance_score>  (69) 
0.582356

>  <HIPPO Pose ID>  (69) 
52776

>  <ref_mols>  (69) 
x0421a

>  <smiles>  (69) 
CC1CCCC1(C)NC(=O)c1nn(C)cc1Cl

>  <HIPPO Compound ID>  (69) 
447519

>  <alias>  (69) 
DYSBAPNFYHPYBM-UHFFFAOYSA-N-P11

>  <subsites>  (69) 


>  <placement_batch>  (69) 
CpKRS_FrAncestor_bulkdock_iter2

>  <name>  (69) 
DYSBAPNFYHPYBM-UHFFFAOYSA-N-P11

$$$$
DSGQUDDPDKTWHS-UHFFFAOYSA-N-P12
     RDKit          3D

 17 18  0  0  0  0  0  0  0  0999 V2000
    5.7205   -8.7470   25.0590 C   0  0  0  0  0  0  0  0  0  0  0  0
    4.6711   -9.0169   23.9999 C   0  0  1  0  0  0  0  0  0  0  0  0
    5.0687   -8.2902   22.7101 C   0  0  0  0  0  0  0  0  0  0  0  0
    4.1571   -8.9017   21.6568 C   0  0  0  0  0  0  0  0  0  0  0  0
    3.5471  -10.1658   22.2745 C   0  0  0  0  0  0  0  0  0  0  0  0
    4.4226  -10.4609   23.4841 C   0  0  1  0  0  0  0  0  0  0  0  0
    5.6832  -11.1098   22.9531 C   0  0  0  0  0  0  0  0  0  0  0  0
    3.7804  -11.3935   24.3883 N   0  0  0  0  0  0  0  0  0  0  0  0
    4.2472  -12.7831   24.9027 C   0  0  0  0  0  0  0  0  0  0  0  0
    5.2544  -13.3526   24.7367 O   0  0  0  0  0  0  0  0  0  0  0  0
    3.1617  -13.4133   25.6614 C   0  0  0  0  0  0  0  0  0  0  0  0
    1.8821  -12.9827   25.5829 N   0  0  0  0  0  0  0  0  0  0  0  0
    1.2298  -13.7700   26.4654 N   0  0  0  0  0  0  0  0  0  0  0  0
   -0.1877  -13.5905   26.6578 C   0  0  0  0  0  0  0  0  0  0  0  0
    2.0165  -14.7092   27.0609 C   0  0  0  0  0  0  0  0  0  0  0  0
    3.2613  -14.5129   26.5349 C   0  0  0  0  0  0  0  0  0  0  0  0
    4.3554  -15.2183   26.8420 F   0  0  0  0  0  0  0  0  0  0  0  0
  2  1  1  1
  2  3  1  0
  3  4  1  0
  4  5  1  0
  5  6  1  0
  6  7  1  6
  6  8  1  0
  8  9  1  0
  9 10  2  0
  9 11  1  0
 11 12  2  0
 12 13  1  0
 13 14  1  0
 13 15  1  0
 15 16  2  0
 16 17  1  0
  6  2  1  0
 16 11  1  0
M  END
>  <inchikey>  (70) 
DSGQUDDPDKTWHS-UHFFFAOYSA-N

>  <tags>  (70) 
fragmenstein_placed,CpKRS_FrAncestor_bulkdock_iter2

>  <ref_pdb>  (70) 
x0540b

>  <energy_score>  (70) 
-10.452866

>  <distance_score>  (70) 
0.592554

>  <HIPPO Pose ID>  (70) 
52781

>  <ref_mols>  (70) 
x0421b

>  <smiles>  (70) 
CC1CCCC1(C)NC(=O)c1nn(C)cc1F

>  <HIPPO Compound ID>  (70) 
447520

>  <alias>  (70) 
DSGQUDDPDKTWHS-UHFFFAOYSA-N-P12

>  <subsites>  (70) 


>  <placement_batch>  (70) 
CpKRS_FrAncestor_bulkdock_iter2

>  <name>  (70) 
DSGQUDDPDKTWHS-UHFFFAOYSA-N-P12

$$$$
AEFLUQTUJNXSAI-UHFFFAOYSA-N-P46
     RDKit          3D

 16 17  0  0  0  0  0  0  0  0999 V2000
    2.7524   -9.1665   23.7981 C   0  0  0  0  0  0  0  0  0  0  0  0
    4.1880   -9.5699   24.1290 C   0  0  2  0  0  0  0  0  0  0  0  0
    5.1175   -8.3653   24.1223 C   0  0  0  0  0  0  0  0  0  0  0  0
    5.5337   -8.2021   22.6618 C   0  0  0  0  0  0  0  0  0  0  0  0
    5.2489   -9.5321   21.9710 C   0  0  0  0  0  0  0  0  0  0  0  0
    4.8826  -10.4805   23.1050 C   0  0  2  0  0  0  0  0  0  0  0  0
    4.1024  -11.7022   22.6590 C   0  0  0  0  0  0  0  0  0  0  0  0
    3.5936  -12.3974   23.8026 N   0  0  0  0  0  0  0  0  0  0  0  0
    4.3210  -13.2341   24.8686 C   0  0  0  0  0  0  0  0  0  0  0  0
    5.4574  -13.4273   25.0294 O   0  0  0  0  0  0  0  0  0  0  0  0
    3.3377  -13.7440   25.8294 C   0  0  0  0  0  0  0  0  0  0  0  0
    1.7580  -13.0607   25.9764 S   0  0  0  0  0  0  0  0  0  0  0  0
    1.4863  -14.0190   27.3571 C   0  0  0  0  0  0  0  0  0  0  0  0
    2.4172  -14.8861   27.6612 N   0  0  0  0  0  0  0  0  0  0  0  0
    3.4883  -14.7302   26.7890 C   0  0  0  0  0  0  0  0  0  0  0  0
    4.8676  -15.7086   27.0085 Cl  0  0  0  0  0  0  0  0  0  0  0  0
  2  1  1  6
  2  3  1  0
  3  4  1  0
  4  5  1  0
  5  6  1  0
  6  7  1  6
  7  8  1  0
  8  9  1  0
  9 10  2  0
  9 11  1  0
 11 12  1  0
 12 13  1  0
 13 14  2  0
 14 15  1  0
 15 16  1  0
  6  2  1  0
 15 11  2  0
M  END
>  <inchikey>  (71) 
AEFLUQTUJNXSAI-UHFFFAOYSA-N

>  <tags>  (71) 
fragmenstein_placed,CpKRS_FrAncestor_bulkdock_iter2

>  <ref_pdb>  (71) 
x0540b

>  <energy_score>  (71) 
-25.311305

>  <distance_score>  (71) 
0.275526

>  <HIPPO Pose ID>  (71) 
52786

>  <ref_mols>  (71) 
x0502c

>  <smiles>  (71) 
CC1CCCC1CNC(=O)c1scnc1Cl

>  <HIPPO Compound ID>  (71) 
121793

>  <alias>  (71) 
AEFLUQTUJNXSAI-UHFFFAOYSA-N-P46

>  <subsites>  (71) 


>  <placement_batch>  (71) 
CpKRS_FrAncestor_bulkdock_iter2

>  <name>  (71) 
AEFLUQTUJNXSAI-UHFFFAOYSA-N-P46

$$$$
JOPCIHGGMLLPJN-UHFFFAOYSA-N-P13
     RDKit          3D

 16 17  0  0  0  0  0  0  0  0999 V2000
    5.1438  -11.6612   21.6632 C   0  0  0  0  0  0  0  0  0  0  0  0
    4.7088  -10.4448   22.4399 C   0  0  2  0  0  0  0  0  0  0  0  0
    5.4020   -9.1483   22.0178 C   0  0  0  0  0  0  0  0  0  0  0  0
    5.5295   -8.3190   23.3009 C   0  0  0  0  0  0  0  0  0  0  0  0
    4.8442   -9.1338   24.3978 C   0  0  0  0  0  0  0  0  0  0  0  0
    5.0507  -10.5583   23.9144 C   0  0  1  0  0  0  0  0  0  0  0  0
    4.2986  -11.5693   24.5842 N   0  0  0  0  0  0  0  0  0  0  0  0
    4.6378  -13.0422   24.8703 C   0  0  0  0  0  0  0  0  0  0  0  0
    5.6151  -13.6438   24.6731 O   0  0  0  0  0  0  0  0  0  0  0  0
    3.5098  -13.6596   25.5878 C   0  0  0  0  0  0  0  0  0  0  0  0
    3.6203  -14.7025   26.5446 C   0  0  0  0  0  0  0  0  0  0  0  0
    2.3905  -14.7508   27.1420 C   0  0  0  0  0  0  0  0  0  0  0  0
    1.9987  -15.6830   28.7436 Br  0  0  0  0  0  0  0  0  0  0  0  0
    1.5818  -13.9301   26.4170 N   0  0  0  0  0  0  0  0  0  0  0  0
    0.1625  -13.7510   26.5702 C   0  0  0  0  0  0  0  0  0  0  0  0
    2.2438  -13.1949   25.5027 N   0  0  0  0  0  0  0  0  0  0  0  0
  2  1  1  6
  2  3  1  0
  3  4  1  0
  4  5  1  0
  5  6  1  0
  6  7  1  1
  7  8  1  0
  8  9  2  0
  8 10  1  0
 10 11  1  0
 11 12  2  0
 12 13  1  0
 12 14  1  0
 14 15  1  0
 14 16  1  0
  6  2  1  0
 16 10  2  0
M  END
>  <inchikey>  (72) 
JOPCIHGGMLLPJN-UHFFFAOYSA-N

>  <tags>  (72) 
fragmenstein_placed,CpKRS_FrAncestor_bulkdock_iter2

>  <ref_pdb>  (72) 
x0540b

>  <energy_score>  (72) 
-10.078433

>  <distance_score>  (72) 
0.367136

>  <HIPPO Pose ID>  (72) 
52817

>  <ref_mols>  (72) 
x0421c

>  <smiles>  (72) 
CC1CCCC1NC(=O)c1cc(Br)n(C)n1

>  <HIPPO Compound ID>  (72) 
131459

>  <alias>  (72) 
JOPCIHGGMLLPJN-UHFFFAOYSA-N-P13

>  <subsites>  (72) 


>  <placement_batch>  (72) 
CpKRS_FrAncestor_bulkdock_iter2

>  <name>  (72) 
JOPCIHGGMLLPJN-UHFFFAOYSA-N-P13

$$$$
KVSXAVAAFXYYEM-UHFFFAOYSA-N-P12
     RDKit          3D

 18 19  0  0  0  0  0  0  0  0999 V2000
    4.9316   -8.4297   25.0773 C   0  0  0  0  0  0  0  0  0  0  0  0
    4.6207   -9.0392   23.7230 C   0  0  1  0  0  0  0  0  0  0  0  0
    5.4436   -8.3665   22.6291 C   0  0  0  0  0  0  0  0  0  0  0  0
    5.4956   -9.3736   21.4926 C   0  0  0  0  0  0  0  0  0  0  0  0
    4.9952  -10.6941   22.0504 C   0  0  0  0  0  0  0  0  0  0  0  0
    5.0208  -10.5070   23.5605 C   0  0  2  0  0  0  0  0  0  0  0  0
    4.1612  -11.4655   24.1742 N   0  0  0  0  0  0  0  0  0  0  0  0
    4.4793  -12.8241   24.8175 C   0  0  0  0  0  0  0  0  0  0  0  0
    5.4821  -13.4129   24.8813 O   0  0  0  0  0  0  0  0  0  0  0  0
    3.2337  -13.3356   25.4155 C   0  0  0  0  0  0  0  0  0  0  0  0
    3.1036  -14.3177   26.4217 C   0  0  0  0  0  0  0  0  0  0  0  0
    1.7550  -14.4091   26.6570 C   0  0  0  0  0  0  0  0  0  0  0  0
    1.1439  -13.5583   25.7709 N   0  0  0  0  0  0  0  0  0  0  0  0
   -0.2754  -13.5762   25.3754 C   0  0  0  0  0  0  0  0  0  0  0  0
   -0.4623  -14.7479   24.3898 C   0  0  0  0  0  0  0  0  0  0  0  0
   -0.7286  -12.2985   24.6331 C   0  0  0  0  0  0  0  0  0  0  0  0
   -1.1966  -13.7417   26.5926 C   0  0  0  0  0  0  0  0  0  0  0  0
    2.0311  -12.8558   25.0364 N   0  0  0  0  0  0  0  0  0  0  0  0
  2  1  1  1
  2  3  1  0
  3  4  1  0
  4  5  1  0
  5  6  1  0
  6  7  1  1
  7  8  1  0
  8  9  2  0
  8 10  1  0
 10 11  1  0
 11 12  2  0
 12 13  1  0
 13 14  1  0
 14 15  1  0
 14 16  1  0
 14 17  1  0
 13 18  1  0
  6  2  1  0
 18 10  2  0
M  END
>  <inchikey>  (73) 
KVSXAVAAFXYYEM-UHFFFAOYSA-N

>  <tags>  (73) 
fragmenstein_placed,CpKRS_FrAncestor_bulkdock_iter2

>  <ref_pdb>  (73) 
x0540b

>  <energy_score>  (73) 
-19.465754

>  <distance_score>  (73) 
0.594536

>  <HIPPO Pose ID>  (73) 
52828

>  <ref_mols>  (73) 
x0421b

>  <smiles>  (73) 
CC1CCCC1NC(=O)c1ccn(C(C)(C)C)n1

>  <HIPPO Compound ID>  (73) 
447525

>  <alias>  (73) 
KVSXAVAAFXYYEM-UHFFFAOYSA-N-P12

>  <subsites>  (73) 


>  <placement_batch>  (73) 
CpKRS_FrAncestor_bulkdock_iter2

>  <name>  (73) 
KVSXAVAAFXYYEM-UHFFFAOYSA-N-P12

$$$$
GUCUXQUBMRDSJW-UHFFFAOYSA-N-P12
     RDKit          3D

 17 18  0  0  0  0  0  0  0  0999 V2000
    4.9735  -11.4349   21.5411 C   0  0  0  0  0  0  0  0  0  0  0  0
    4.5803  -10.2556   22.3953 C   0  0  2  0  0  0  0  0  0  0  0  0
    5.3611   -8.9787   22.0787 C   0  0  0  0  0  0  0  0  0  0  0  0
    5.5447   -8.2695   23.4233 C   0  0  0  0  0  0  0  0  0  0  0  0
    4.7572   -9.0950   24.4406 C   0  0  0  0  0  0  0  0  0  0  0  0
    4.8734  -10.4967   23.8670 C   0  0  1  0  0  0  0  0  0  0  0  0
    4.0337  -11.5054   24.4304 N   0  0  0  0  0  0  0  0  0  0  0  0
    4.3648  -12.9300   24.9056 C   0  0  0  0  0  0  0  0  0  0  0  0
    5.3584  -13.5352   24.8428 O   0  0  0  0  0  0  0  0  0  0  0  0
    3.1775  -13.4973   25.5722 C   0  0  0  0  0  0  0  0  0  0  0  0
    3.1890  -14.4961   26.5758 C   0  0  0  0  0  0  0  0  0  0  0  0
    1.8785  -14.6501   26.9442 C   0  0  0  0  0  0  0  0  0  0  0  0
    1.1516  -13.8435   26.1151 N   0  0  0  0  0  0  0  0  0  0  0  0
   -0.2937  -13.9148   25.9288 C   0  0  0  0  0  0  0  0  0  0  0  0
   -1.0189  -12.5986   26.1642 C   0  0  0  0  0  0  0  0  0  0  0  0
   -0.6325  -14.4702   24.5422 C   0  0  0  0  0  0  0  0  0  0  0  0
    1.9203  -13.0820   25.3042 N   0  0  0  0  0  0  0  0  0  0  0  0
  2  1  1  6
  2  3  1  0
  3  4  1  0
  4  5  1  0
  5  6  1  0
  6  7  1  1
  7  8  1  0
  8  9  2  0
  8 10  1  0
 10 11  1  0
 11 12  2  0
 12 13  1  0
 13 14  1  0
 14 15  1  0
 14 16  1  0
 13 17  1  0
  6  2  1  0
 17 10  2  0
M  END
>  <inchikey>  (74) 
GUCUXQUBMRDSJW-UHFFFAOYSA-N

>  <tags>  (74) 
fragmenstein_placed,CpKRS_FrAncestor_bulkdock_iter2

>  <ref_pdb>  (74) 
x0540b

>  <energy_score>  (74) 
-20.29468

>  <distance_score>  (74) 
0.486121

>  <HIPPO Pose ID>  (74) 
52832

>  <ref_mols>  (74) 
x0421b

>  <smiles>  (74) 
CC1CCCC1NC(=O)c1ccn(C(C)C)n1

>  <HIPPO Compound ID>  (74) 
447526

>  <alias>  (74) 
GUCUXQUBMRDSJW-UHFFFAOYSA-N-P12

>  <subsites>  (74) 


>  <placement_batch>  (74) 
CpKRS_FrAncestor_bulkdock_iter2

>  <name>  (74) 
GUCUXQUBMRDSJW-UHFFFAOYSA-N-P12

$$$$
WANJAYURPCVYLM-UHFFFAOYSA-N-P13
     RDKit          3D

 15 16  0  0  0  0  0  0  0  0999 V2000
    5.1465  -11.6333   21.6809 C   0  0  0  0  0  0  0  0  0  0  0  0
    4.7120  -10.4206   22.4654 C   0  0  2  0  0  0  0  0  0  0  0  0
    5.4108   -9.1240   22.0535 C   0  0  0  0  0  0  0  0  0  0  0  0
    5.5347   -8.3026   23.3420 C   0  0  0  0  0  0  0  0  0  0  0  0
    4.8355   -9.1180   24.4299 C   0  0  0  0  0  0  0  0  0  0  0  0
    5.0411  -10.5415   23.9444 C   0  0  1  0  0  0  0  0  0  0  0  0
    4.2750  -11.5542   24.5958 N   0  0  0  0  0  0  0  0  0  0  0  0
    4.6132  -13.0241   24.8972 C   0  0  0  0  0  0  0  0  0  0  0  0
    5.5993  -13.6214   24.7307 O   0  0  0  0  0  0  0  0  0  0  0  0
    3.4451  -13.6684   25.5270 C   0  0  0  0  0  0  0  0  0  0  0  0
    3.4459  -14.9058   26.2213 C   0  0  0  0  0  0  0  0  0  0  0  0
    2.1632  -15.0641   26.6797 C   0  0  0  0  0  0  0  0  0  0  0  0
    1.4707  -13.9879   26.2198 N   0  0  0  0  0  0  0  0  0  0  0  0
    0.0676  -13.7354   26.4183 C   0  0  0  0  0  0  0  0  0  0  0  0
    2.2155  -13.1075   25.5315 N   0  0  0  0  0  0  0  0  0  0  0  0
  2  1  1  6
  2  3  1  0
  3  4  1  0
  4  5  1  0
  5  6  1  0
  6  7  1  1
  7  8  1  0
  8  9  2  0
  8 10  1  0
 10 11  1  0
 11 12  2  0
 12 13  1  0
 13 14  1  0
 13 15  1  0
  6  2  1  0
 15 10  2  0
M  END
>  <inchikey>  (75) 
WANJAYURPCVYLM-UHFFFAOYSA-N

>  <tags>  (75) 
fragmenstein_placed,CpKRS_FrAncestor_bulkdock_iter2

>  <ref_pdb>  (75) 
x0540b

>  <energy_score>  (75) 
-17.879414

>  <distance_score>  (75) 
0.392501

>  <HIPPO Pose ID>  (75) 
52837

>  <ref_mols>  (75) 
x0421c

>  <smiles>  (75) 
CC1CCCC1NC(=O)c1ccn(C)n1

>  <HIPPO Compound ID>  (75) 
309530

>  <alias>  (75) 
WANJAYURPCVYLM-UHFFFAOYSA-N-P13

>  <subsites>  (75) 


>  <placement_batch>  (75) 
CpKRS_FrAncestor_bulkdock_iter2

>  <name>  (75) 
WANJAYURPCVYLM-UHFFFAOYSA-N-P13

$$$$
JRTIWPOJPWDCNC-UHFFFAOYSA-N-P14
     RDKit          3D

 19 20  0  0  0  0  0  0  0  0999 V2000
    3.3061   -9.1137   24.2118 C   0  0  0  0  0  0  0  0  0  0  0  0
    4.7591   -9.4991   23.9326 C   0  0  2  0  0  0  0  0  0  0  0  0
    5.3272   -8.6923   22.7639 C   0  0  0  0  0  0  0  0  0  0  0  0
    5.1576   -9.5660   21.5205 C   0  0  0  0  0  0  0  0  0  0  0  0
    4.6087  -10.9085   21.9909 C   0  0  0  0  0  0  0  0  0  0  0  0
    4.9532  -10.9482   23.4664 C   0  0  2  0  0  0  0  0  0  0  0  0
    4.1924  -11.8973   24.2120 N   0  0  0  0  0  0  0  0  0  0  0  0
    4.6310  -13.1715   24.9453 C   0  0  0  0  0  0  0  0  0  0  0  0
    5.6698  -13.6935   24.9952 O   0  0  0  0  0  0  0  0  0  0  0  0
    3.4707  -13.6372   25.7336 C   0  0  0  0  0  0  0  0  0  0  0  0
    2.2754  -13.0130   25.6045 N   0  0  0  0  0  0  0  0  0  0  0  0
    1.4677  -13.6987   26.4100 N   0  0  0  0  0  0  0  0  0  0  0  0
    0.0545  -13.4629   26.3087 C   0  0  0  0  0  0  0  0  0  0  0  0
    2.0975  -14.6382   27.1589 C   0  0  0  0  0  0  0  0  0  0  0  0
    3.4104  -14.6694   26.7124 C   0  0  0  0  0  0  0  0  0  0  0  0
    4.4834  -15.6066   27.1147 C   0  0  0  0  0  0  0  0  0  0  0  0
    4.2443  -16.1241   28.3537 F   0  0  0  0  0  0  0  0  0  0  0  0
    4.5361  -16.6770   26.2752 F   0  0  0  0  0  0  0  0  0  0  0  0
    5.7306  -15.0897   27.1644 F   0  0  0  0  0  0  0  0  0  0  0  0
  2  1  1  6
  2  3  1  0
  3  4  1  0
  4  5  1  0
  5  6  1  0
  6  7  1  1
  7  8  1  0
  8  9  2  0
  8 10  1  0
 10 11  2  0
 11 12  1  0
 12 13  1  0
 12 14  1  0
 14 15  2  0
 15 16  1  0
 16 17  1  0
 16 18  1  0
 16 19  1  0
  6  2  1  0
 15 10  1  0
M  END
>  <inchikey>  (76) 
JRTIWPOJPWDCNC-UHFFFAOYSA-N

>  <tags>  (76) 
fragmenstein_placed,CpKRS_FrAncestor_bulkdock_iter2

>  <ref_pdb>  (76) 
x0540b

>  <energy_score>  (76) 
-8.123841

>  <distance_score>  (76) 
0.292568

>  <HIPPO Pose ID>  (76) 
52846

>  <ref_mols>  (76) 
x0421d

>  <smiles>  (76) 
CC1CCCC1NC(=O)c1nn(C)cc1C(F)(F)F

>  <HIPPO Compound ID>  (76) 
447527

>  <alias>  (76) 
JRTIWPOJPWDCNC-UHFFFAOYSA-N-P14

>  <subsites>  (76) 


>  <placement_batch>  (76) 
CpKRS_FrAncestor_bulkdock_iter2

>  <name>  (76) 
JRTIWPOJPWDCNC-UHFFFAOYSA-N-P14

$$$$
ROEAWHQVEBKUQM-UHFFFAOYSA-N-P13
     RDKit          3D

 18 19  0  0  0  0  0  0  0  0999 V2000
    3.4210   -9.0085   24.3946 C   0  0  0  0  0  0  0  0  0  0  0  0
    4.8804   -9.4021   24.1781 C   0  0  2  0  0  0  0  0  0  0  0  0
    5.5305   -8.5754   23.0678 C   0  0  0  0  0  0  0  0  0  0  0  0
    5.3127   -9.3627   21.7738 C   0  0  0  0  0  0  0  0  0  0  0  0
    4.8002  -10.7440   22.1752 C   0  0  0  0  0  0  0  0  0  0  0  0
    5.0795  -10.8313   23.6646 C   0  0  2  0  0  0  0  0  0  0  0  0
    4.3003  -11.8164   24.3451 N   0  0  0  0  0  0  0  0  0  0  0  0
    4.6933  -13.1907   24.8951 C   0  0  0  0  0  0  0  0  0  0  0  0
    5.7325  -13.7119   24.9517 O   0  0  0  0  0  0  0  0  0  0  0  0
    3.4914  -13.8068   25.4997 C   0  0  0  0  0  0  0  0  0  0  0  0
    2.2570  -13.2834   25.3275 N   0  0  0  0  0  0  0  0  0  0  0  0
    1.4709  -14.0490   26.0992 N   0  0  0  0  0  0  0  0  0  0  0  0
    0.0611  -13.7663   26.1952 C   0  0  0  0  0  0  0  0  0  0  0  0
    2.1387  -15.0262   26.7641 C   0  0  0  0  0  0  0  0  0  0  0  0
    3.4649  -14.9051   26.4008 C   0  0  0  0  0  0  0  0  0  0  0  0
    4.6260  -15.6805   26.8844 C   0  0  0  0  0  0  0  0  0  0  0  0
    4.8045  -16.8072   26.1416 F   0  0  0  0  0  0  0  0  0  0  0  0
    4.4080  -16.1042   28.1635 F   0  0  0  0  0  0  0  0  0  0  0  0
  2  1  1  6
  2  3  1  0
  3  4  1  0
  4  5  1  0
  5  6  1  0
  6  7  1  1
  7  8  1  0
  8  9  2  0
  8 10  1  0
 10 11  2  0
 11 12  1  0
 12 13  1  0
 12 14  1  0
 14 15  2  0
 15 16  1  0
 16 17  1  0
 16 18  1  0
  6  2  1  0
 15 10  1  0
M  END
>  <inchikey>  (77) 
ROEAWHQVEBKUQM-UHFFFAOYSA-N

>  <tags>  (77) 
fragmenstein_placed,CpKRS_FrAncestor_bulkdock_iter2

>  <ref_pdb>  (77) 
x0540b

>  <energy_score>  (77) 
-8.412327

>  <distance_score>  (77) 
0.261601

>  <HIPPO Pose ID>  (77) 
52849

>  <ref_mols>  (77) 
x0421c

>  <smiles>  (77) 
CC1CCCC1NC(=O)c1nn(C)cc1C(F)F

>  <HIPPO Compound ID>  (77) 
447528

>  <alias>  (77) 
ROEAWHQVEBKUQM-UHFFFAOYSA-N-P13

>  <subsites>  (77) 


>  <placement_batch>  (77) 
CpKRS_FrAncestor_bulkdock_iter2

>  <name>  (77) 
ROEAWHQVEBKUQM-UHFFFAOYSA-N-P13

$$$$
ZJHGMPQUFQMYSJ-UHFFFAOYSA-N-P12
     RDKit          3D

 16 17  0  0  0  0  0  0  0  0999 V2000
    4.9736  -11.6101   21.6143 C   0  0  0  0  0  0  0  0  0  0  0  0
    4.5904  -10.3990   22.4265 C   0  0  2  0  0  0  0  0  0  0  0  0
    5.3151   -9.1165   22.0081 C   0  0  0  0  0  0  0  0  0  0  0  0
    5.5338   -8.3296   23.3038 C   0  0  0  0  0  0  0  0  0  0  0  0
    4.8310   -9.1286   24.3999 C   0  0  0  0  0  0  0  0  0  0  0  0
    4.9672  -10.5536   23.8903 C   0  0  1  0  0  0  0  0  0  0  0  0
    4.2016  -11.5506   24.5694 N   0  0  0  0  0  0  0  0  0  0  0  0
    4.5236  -13.0282   24.8696 C   0  0  0  0  0  0  0  0  0  0  0  0
    5.4946  -13.6436   24.6782 O   0  0  0  0  0  0  0  0  0  0  0  0
    3.3788  -13.6191   25.5751 C   0  0  0  0  0  0  0  0  0  0  0  0
    2.1363  -13.0846   25.5102 N   0  0  0  0  0  0  0  0  0  0  0  0
    1.4223  -13.8361   26.3776 N   0  0  0  0  0  0  0  0  0  0  0  0
    0.0274  -13.5458   26.6100 C   0  0  0  0  0  0  0  0  0  0  0  0
    2.1359  -14.8439   26.9554 C   0  0  0  0  0  0  0  0  0  0  0  0
    3.3944  -14.7304   26.4371 C   0  0  0  0  0  0  0  0  0  0  0  0
    4.4417  -15.4948   26.7621 F   0  0  0  0  0  0  0  0  0  0  0  0
  2  1  1  6
  2  3  1  0
  3  4  1  0
  4  5  1  0
  5  6  1  0
  6  7  1  1
  7  8  1  0
  8  9  2  0
  8 10  1  0
 10 11  2  0
 11 12  1  0
 12 13  1  0
 12 14  1  0
 14 15  2  0
 15 16  1  0
  6  2  1  0
 15 10  1  0
M  END
>  <inchikey>  (78) 
ZJHGMPQUFQMYSJ-UHFFFAOYSA-N

>  <tags>  (78) 
fragmenstein_placed,CpKRS_FrAncestor_bulkdock_iter2

>  <ref_pdb>  (78) 
x0540b

>  <energy_score>  (78) 
-1.085038

>  <distance_score>  (78) 
0.339441

>  <HIPPO Pose ID>  (78) 
52856

>  <ref_mols>  (78) 
x0421b

>  <smiles>  (78) 
CC1CCCC1NC(=O)c1nn(C)cc1F

>  <HIPPO Compound ID>  (78) 
127449

>  <alias>  (78) 
ZJHGMPQUFQMYSJ-UHFFFAOYSA-N-P12

>  <subsites>  (78) 


>  <placement_batch>  (78) 
CpKRS_FrAncestor_bulkdock_iter2

>  <name>  (78) 
ZJHGMPQUFQMYSJ-UHFFFAOYSA-N-P12

$$$$
LYOJVRNEEYBXSB-UHFFFAOYSA-N-P13
     RDKit          3D

 17 18  0  0  0  0  0  0  0  0999 V2000
    4.7921  -11.5220   21.6918 C   0  0  0  0  0  0  0  0  0  0  0  0
    5.4608  -10.4245   22.4751 C   0  0  1  0  0  0  0  0  0  0  0  0
    5.0329   -9.0136   22.0783 C   0  0  0  0  0  0  0  0  0  0  0  0
    5.4201   -8.2045   23.3047 C   0  0  0  0  0  0  0  0  0  0  0  0
    4.9035   -9.0780   24.4366 C   0  0  0  0  0  0  0  0  0  0  0  0
    5.2958  -10.4899   24.0008 C   0  0  1  0  0  0  0  0  0  0  0  0
    4.4157  -11.5133   24.4909 N   0  0  0  0  0  0  0  0  0  0  0  0
    4.6607  -13.0155   24.7241 C   0  0  0  0  0  0  0  0  0  0  0  0
    5.5898  -13.6747   24.4837 O   0  0  0  0  0  0  0  0  0  0  0  0
    3.5063  -13.5763   25.4533 C   0  0  0  0  0  0  0  0  0  0  0  0
    2.2703  -13.0219   25.3803 N   0  0  0  0  0  0  0  0  0  0  0  0
    1.5496  -13.7448   26.2647 N   0  0  0  0  0  0  0  0  0  0  0  0
    0.1257  -13.5358   26.3483 C   0  0  0  0  0  0  0  0  0  0  0  0
    2.3025  -14.6335   26.9641 C   0  0  0  0  0  0  0  0  0  0  0  0
    1.6891  -15.4312   28.3343 Cl  0  0  0  0  0  0  0  0  0  0  0  0
    3.5398  -14.6496   26.3853 C   0  0  0  0  0  0  0  0  0  0  0  0
    4.8618  -15.6221   26.7937 Cl  0  0  0  0  0  0  0  0  0  0  0  0
  2  1  1  6
  2  3  1  0
  3  4  1  0
  4  5  1  0
  5  6  1  0
  6  7  1  6
  7  8  1  0
  8  9  2  0
  8 10  1  0
 10 11  2  0
 11 12  1  0
 12 13  1  0
 12 14  1  0
 14 15  1  0
 14 16  2  0
 16 17  1  0
  6  2  1  0
 16 10  1  0
M  END
>  <inchikey>  (79) 
LYOJVRNEEYBXSB-UHFFFAOYSA-N

>  <tags>  (79) 
fragmenstein_placed,CpKRS_FrAncestor_bulkdock_iter2

>  <ref_pdb>  (79) 
x0540b

>  <energy_score>  (79) 
-9.26591

>  <distance_score>  (79) 
0.399037

>  <HIPPO Pose ID>  (79) 
52861

>  <ref_mols>  (79) 
x0421c

>  <smiles>  (79) 
CC1CCCC1NC(=O)c1nn(C)c(Cl)c1Cl

>  <HIPPO Compound ID>  (79) 
447529

>  <alias>  (79) 
LYOJVRNEEYBXSB-UHFFFAOYSA-N-P13

>  <subsites>  (79) 


>  <placement_batch>  (79) 
CpKRS_FrAncestor_bulkdock_iter2

>  <name>  (79) 
LYOJVRNEEYBXSB-UHFFFAOYSA-N-P13

$$$$
RSEUYMISLIMHJO-UHFFFAOYSA-N-P14
     RDKit          3D

 18 19  0  0  0  0  0  0  0  0999 V2000
    3.4937   -8.9519   24.2742 C   0  0  0  0  0  0  0  0  0  0  0  0
    4.8898   -9.4351   23.8816 C   0  0  2  0  0  0  0  0  0  0  0  0
    5.3880   -8.6802   22.6487 C   0  0  0  0  0  0  0  0  0  0  0  0
    5.1290   -9.5952   21.4524 C   0  0  0  0  0  0  0  0  0  0  0  0
    4.4974  -10.8699   21.9963 C   0  0  0  0  0  0  0  0  0  0  0  0
    4.9542  -10.9039   23.4395 C   0  0  2  0  0  0  0  0  0  0  0  0
    4.1841  -11.7703   24.2678 N   0  0  0  0  0  0  0  0  0  0  0  0
    4.5641  -13.0895   24.9588 C   0  0  0  0  0  0  0  0  0  0  0  0
    5.5884  -13.6395   25.0245 O   0  0  0  0  0  0  0  0  0  0  0  0
    3.3520  -13.5444   25.6707 C   0  0  0  0  0  0  0  0  0  0  0  0
    2.1829  -12.8812   25.4902 N   0  0  0  0  0  0  0  0  0  0  0  0
    1.3145  -13.5193   26.2935 N   0  0  0  0  0  0  0  0  0  0  0  0
   -0.0961  -13.1804   26.1753 C   0  0  0  0  0  0  0  0  0  0  0  0
   -0.3032  -11.8459   26.3274 F   0  0  0  0  0  0  0  0  0  0  0  0
   -0.8692  -13.7924   27.1137 F   0  0  0  0  0  0  0  0  0  0  0  0
    1.8907  -14.4910   27.0558 C   0  0  0  0  0  0  0  0  0  0  0  0
    3.2038  -14.5610   26.6454 C   0  0  0  0  0  0  0  0  0  0  0  0
    4.3761  -15.6523   27.1935 Cl  0  0  0  0  0  0  0  0  0  0  0  0
  2  1  1  6
  2  3  1  0
  3  4  1  0
  4  5  1  0
  5  6  1  0
  6  7  1  1
  7  8  1  0
  8  9  2  0
  8 10  1  0
 10 11  2  0
 11 12  1  0
 12 13  1  0
 13 14  1  0
 13 15  1  0
 12 16  1  0
 16 17  2  0
 17 18  1  0
  6  2  1  0
 17 10  1  0
M  END
>  <inchikey>  (80) 
RSEUYMISLIMHJO-UHFFFAOYSA-N

>  <tags>  (80) 
fragmenstein_placed,CpKRS_FrAncestor_bulkdock_iter2

>  <ref_pdb>  (80) 
x0540b

>  <energy_score>  (80) 
-10.877432

>  <distance_score>  (80) 
0.318091

>  <HIPPO Pose ID>  (80) 
52866

>  <ref_mols>  (80) 
x0421d

>  <smiles>  (80) 
CC1CCCC1NC(=O)c1nn(C(F)F)cc1Cl

>  <HIPPO Compound ID>  (80) 
447530

>  <alias>  (80) 
RSEUYMISLIMHJO-UHFFFAOYSA-N-P14

>  <subsites>  (80) 


>  <placement_batch>  (80) 
CpKRS_FrAncestor_bulkdock_iter2

>  <name>  (80) 
RSEUYMISLIMHJO-UHFFFAOYSA-N-P14

$$$$
AZJQRXQXWXWKQP-UHFFFAOYSA-N-P52
     RDKit          3D

 12 12  0  0  0  0  0  0  0  0999 V2000
   25.0860    7.3540   25.3218 C   0  0  0  0  0  0  0  0  0  0  0  0
   24.5658    8.5890   24.6351 C   0  0  0  0  0  0  0  0  0  0  0  0
   25.5075    9.3510   23.9171 C   0  0  0  0  0  0  0  0  0  0  0  0
   25.1217   10.4598   23.1769 C   0  0  0  0  0  0  0  0  0  0  0  0
   23.7829   10.8194   23.1325 C   0  0  0  0  0  0  0  0  0  0  0  0
   22.8229   10.1073   23.8612 C   0  0  0  0  0  0  0  0  0  0  0  0
   21.0378   10.7304   23.6607 Br  0  0  0  0  0  0  0  0  0  0  0  0
   23.2074    8.9988   24.6362 C   0  0  0  0  0  0  0  0  0  0  0  0
   21.9776    8.1602   25.6186 S   0  0  0  0  0  0  0  0  0  0  0  0
   21.0388    7.4236   24.4510 N   0  0  0  0  0  0  0  0  0  0  0  0
   22.5914    7.0865   26.3646 O   0  0  0  0  0  0  0  0  0  0  0  0
   21.1658    9.1356   26.3105 O   0  0  0  0  0  0  0  0  0  0  0  0
  1  2  1  0
  2  3  2  0
  3  4  1  0
  4  5  2  0
  5  6  1  0
  6  7  1  0
  6  8  2  0
  8  9  1  0
  9 10  1  0
  9 11  2  0
  9 12  2  0
  8  2  1  0
M  END
>  <inchikey>  (81) 
AZJQRXQXWXWKQP-UHFFFAOYSA-N

>  <tags>  (81) 
fragmenstein_placed,CpKRS_FrAncestor_bulkdock_iter2

>  <ref_pdb>  (81) 
x0540b

>  <energy_score>  (81) 
-38.8676

>  <distance_score>  (81) 
0.379248

>  <HIPPO Pose ID>  (81) 
52871

>  <ref_mols>  (81) 
x0639a

>  <smiles>  (81) 
Cc1cccc(Br)c1S(N)(=O)=O

>  <HIPPO Compound ID>  (81) 
447531

>  <alias>  (81) 
AZJQRXQXWXWKQP-UHFFFAOYSA-N-P52

>  <subsites>  (81) 


>  <placement_batch>  (81) 
CpKRS_FrAncestor_bulkdock_iter2

>  <name>  (81) 
AZJQRXQXWXWKQP-UHFFFAOYSA-N-P52

$$$$
PETJBWLTGCVDCP-UHFFFAOYSA-N-P54
     RDKit          3D

 15 15  0  0  0  0  0  0  0  0999 V2000
    4.7950  -38.2977   11.5635 C   0  0  0  0  0  0  0  0  0  0  0  0
    6.2785  -38.2003   11.7953 C   0  0  0  0  0  0  0  0  0  0  0  0
    6.8052  -38.9937   12.8318 C   0  0  0  0  0  0  0  0  0  0  0  0
    8.1585  -38.9649   13.1466 C   0  0  0  0  0  0  0  0  0  0  0  0
    9.0183  -38.1493   12.4240 C   0  0  0  0  0  0  0  0  0  0  0  0
    8.5308  -37.3447   11.3873 C   0  0  0  0  0  0  0  0  0  0  0  0
    9.8586  -36.2995   10.5066 Br  0  0  0  0  0  0  0  0  0  0  0  0
    7.1564  -37.3564   11.0674 C   0  0  0  0  0  0  0  0  0  0  0  0
    6.5419  -36.2145    9.8321 S   0  0  0  0  0  0  0  0  0  0  0  0
    5.1116  -36.3550    9.6784 O   0  0  0  0  0  0  0  0  0  0  0  0
    7.1004  -34.9113   10.1289 O   0  0  0  0  0  0  0  0  0  0  0  0
    7.2441  -36.7661    8.4271 N   0  0  0  0  0  0  0  0  0  0  0  0
    6.7847  -37.9942    7.7821 C   0  0  0  0  0  0  0  0  0  0  0  0
    8.0058  -38.8184    7.3909 C   0  0  0  0  0  0  0  0  0  0  0  0
    5.9532  -37.6312    6.5584 C   0  0  0  0  0  0  0  0  0  0  0  0
  1  2  1  0
  2  3  2  0
  3  4  1  0
  4  5  2  0
  5  6  1  0
  6  7  1  0
  6  8  2  0
  8  9  1  0
  9 10  2  0
  9 11  2  0
  9 12  1  0
 12 13  1  0
 13 14  1  0
 13 15  1  0
  8  2  1  0
M  END
>  <inchikey>  (82) 
PETJBWLTGCVDCP-UHFFFAOYSA-N

>  <tags>  (82) 
fragmenstein_placed,CpKRS_FrAncestor_bulkdock_iter2

>  <ref_pdb>  (82) 
x0540b

>  <energy_score>  (82) 
-61.613979

>  <distance_score>  (82) 
0.211368

>  <HIPPO Pose ID>  (82) 
52876

>  <ref_mols>  (82) 
x0639c

>  <smiles>  (82) 
Cc1cccc(Br)c1S(=O)(=O)NC(C)C

>  <HIPPO Compound ID>  (82) 
312135

>  <alias>  (82) 
PETJBWLTGCVDCP-UHFFFAOYSA-N-P54

>  <subsites>  (82) 


>  <placement_batch>  (82) 
CpKRS_FrAncestor_bulkdock_iter2

>  <name>  (82) 
PETJBWLTGCVDCP-UHFFFAOYSA-N-P54

$$$$
CLVNZPSFHZOJGB-UHFFFAOYSA-N-P17
     RDKit          3D

 18 19  0  0  0  0  0  0  0  0999 V2000
    5.1394   -9.8514   21.0551 C   0  0  0  0  0  0  0  0  0  0  0  0
    4.7655   -9.5169   22.4455 C   0  0  0  0  0  0  0  0  0  0  0  0
    5.0610   -8.2134   22.8770 C   0  0  0  0  0  0  0  0  0  0  0  0
    4.7515   -7.8216   24.1635 C   0  0  0  0  0  0  0  0  0  0  0  0
    4.0717   -8.7030   24.9890 C   0  0  0  0  0  0  0  0  0  0  0  0
    3.7722  -10.0000   24.5545 C   0  0  0  0  0  0  0  0  0  0  0  0
    4.1587  -10.4541   23.2915 C   0  0  0  0  0  0  0  0  0  0  0  0
    3.9666  -11.8918   22.8395 C   0  0  0  0  0  0  0  0  0  0  0  0
    3.4936  -12.7599   23.8672 N   0  0  0  0  0  0  0  0  0  0  0  0
    4.2465  -13.4553   25.0106 C   0  0  0  0  0  0  0  0  0  0  0  0
    5.3850  -13.4929   25.2515 O   0  0  0  0  0  0  0  0  0  0  0  0
    3.3082  -14.0930   26.0018 C   0  0  0  0  0  0  0  0  0  0  0  0
    1.9568  -13.7304   26.1229 C   0  0  0  0  0  0  0  0  0  0  0  0
    1.1754  -14.2510   27.1529 C   0  0  0  0  0  0  0  0  0  0  0  0
    1.7456  -15.0823   28.1096 C   0  0  0  0  0  0  0  0  0  0  0  0
    3.0840  -15.4313   28.0015 C   0  0  0  0  0  0  0  0  0  0  0  0
    3.6171  -16.2222   28.9789 O   0  0  0  0  0  0  0  0  0  0  0  0
    3.8641  -14.9635   26.9493 C   0  0  0  0  0  0  0  0  0  0  0  0
  1  2  1  0
  2  3  2  0
  3  4  1  0
  4  5  2  0
  5  6  1  0
  6  7  2  0
  7  8  1  0
  8  9  1  0
  9 10  1  0
 10 11  2  0
 10 12  1  0
 12 13  2  0
 13 14  1  0
 14 15  2  0
 15 16  1  0
 16 17  1  0
 16 18  2  0
  7  2  1  0
 18 12  1  0
M  END
>  <inchikey>  (83) 
CLVNZPSFHZOJGB-UHFFFAOYSA-N

>  <tags>  (83) 
fragmenstein_placed,CpKRS_FrAncestor_bulkdock_iter2

>  <ref_pdb>  (83) 
x0540b

>  <energy_score>  (83) 
-0.987421

>  <distance_score>  (83) 
0.795879

>  <HIPPO Pose ID>  (83) 
52877

>  <ref_mols>  (83) 
x0434a

>  <smiles>  (83) 
Cc1ccccc1CNC(=O)c1cccc(O)c1

>  <HIPPO Compound ID>  (83) 
447532

>  <alias>  (83) 
CLVNZPSFHZOJGB-UHFFFAOYSA-N-P17

>  <subsites>  (83) 


>  <placement_batch>  (83) 
CpKRS_FrAncestor_bulkdock_iter2

>  <name>  (83) 
CLVNZPSFHZOJGB-UHFFFAOYSA-N-P17

$$$$
AHKNRXXCQOQLJA-UHFFFAOYSA-N-P46
     RDKit          3D

 16 17  0  0  0  0  0  0  0  0999 V2000
    2.5522   -8.6595   23.1707 C   0  0  0  0  0  0  0  0  0  0  0  0
    3.6743   -9.5920   23.6242 C   0  0  0  0  0  0  0  0  0  0  0  0
    3.1585  -10.1641   24.9136 C   0  0  0  0  0  0  0  0  0  0  0  0
    4.9781   -8.8067   23.8051 C   0  0  0  0  0  0  0  0  0  0  0  0
    5.5641   -8.7119   22.4001 C   0  0  0  0  0  0  0  0  0  0  0  0
    4.8736   -9.7947   21.5695 C   0  0  0  0  0  0  0  0  0  0  0  0
    4.0492  -10.6409   22.5520 C   0  0  1  0  0  0  0  0  0  0  0  0
    4.8907  -11.8461   23.0169 C   0  0  0  0  0  0  0  0  0  0  0  0
    4.2412  -12.7045   23.9693 N   0  0  0  0  0  0  0  0  0  0  0  0
    4.8304  -13.5833   25.0893 C   0  0  0  0  0  0  0  0  0  0  0  0
    5.9394  -13.8096   25.3668 O   0  0  0  0  0  0  0  0  0  0  0  0
    3.7670  -14.1063   25.9546 C   0  0  0  0  0  0  0  0  0  0  0  0
    3.8960  -15.0710   26.9391 C   0  0  0  0  0  0  0  0  0  0  0  0
    2.8118  -15.2370   27.7849 N   0  0  0  0  0  0  0  0  0  0  0  0
    1.8696  -14.4021   27.4179 C   0  0  0  0  0  0  0  0  0  0  0  0
    2.1651  -13.4828   26.0073 S   0  0  0  0  0  0  0  0  0  0  0  0
  1  2  1  0
  2  3  1  0
  2  4  1  0
  4  5  1  0
  5  6  1  0
  6  7  1  0
  7  8  1  1
  8  9  1  0
  9 10  1  0
 10 11  2  0
 10 12  1  0
 12 13  2  0
 13 14  1  0
 14 15  2  0
 15 16  1  0
  7  2  1  0
 16 12  1  0
M  END
>  <inchikey>  (84) 
AHKNRXXCQOQLJA-UHFFFAOYSA-N

>  <tags>  (84) 
fragmenstein_placed,CpKRS_FrAncestor_bulkdock_iter2

>  <ref_pdb>  (84) 
x0540b

>  <energy_score>  (84) 
-34.093692

>  <distance_score>  (84) 
0.665581

>  <HIPPO Pose ID>  (84) 
52880

>  <ref_mols>  (84) 
x0502c

>  <smiles>  (84) 
CC1(C)CCCC1CNC(=O)c1cncs1

>  <HIPPO Compound ID>  (84) 
121918

>  <alias>  (84) 
AHKNRXXCQOQLJA-UHFFFAOYSA-N-P46

>  <subsites>  (84) 


>  <placement_batch>  (84) 
CpKRS_FrAncestor_bulkdock_iter2

>  <name>  (84) 
AHKNRXXCQOQLJA-UHFFFAOYSA-N-P46

$$$$
IAPSGGVSZAFCJP-UHFFFAOYSA-N-P13
     RDKit          3D

 17 18  0  0  0  0  0  0  0  0999 V2000
    4.8309   -8.2563   25.3776 C   0  0  0  0  0  0  0  0  0  0  0  0
    4.5905   -8.9417   24.0438 C   0  0  1  0  0  0  0  0  0  0  0  0
    5.3713   -8.2424   22.9308 C   0  0  0  0  0  0  0  0  0  0  0  0
    5.2372   -9.2213   21.7862 C   0  0  0  0  0  0  0  0  0  0  0  0
    5.4468  -10.5791   22.4517 C   0  0  2  0  0  0  0  0  0  0  0  0
    4.7137  -11.6968   21.7516 C   0  0  0  0  0  0  0  0  0  0  0  0
    5.1209  -10.3798   23.9452 C   0  0  0  0  0  0  0  0  0  0  0  0
    4.2907  -11.4207   24.4839 N   0  0  0  0  0  0  0  0  0  0  0  0
    4.6290  -12.8773   24.8609 C   0  0  0  0  0  0  0  0  0  0  0  0
    5.6145  -13.4839   24.7221 O   0  0  0  0  0  0  0  0  0  0  0  0
    3.4866  -13.4900   25.5665 C   0  0  0  0  0  0  0  0  0  0  0  0
    3.5794  -14.5677   26.4909 C   0  0  0  0  0  0  0  0  0  0  0  0
    2.3356  -14.6423   27.0437 C   0  0  0  0  0  0  0  0  0  0  0  0
    1.7778  -15.4993   28.3982 Cl  0  0  0  0  0  0  0  0  0  0  0  0
    1.5369  -13.7905   26.3477 N   0  0  0  0  0  0  0  0  0  0  0  0
    0.1080  -13.6405   26.4437 C   0  0  0  0  0  0  0  0  0  0  0  0
    2.2222  -13.0190   25.4756 N   0  0  0  0  0  0  0  0  0  0  0  0
  2  1  1  1
  2  3  1  0
  3  4  1  0
  4  5  1  0
  5  6  1  6
  5  7  1  0
  7  8  1  0
  8  9  1  0
  9 10  2  0
  9 11  1  0
 11 12  1  0
 12 13  2  0
 13 14  1  0
 13 15  1  0
 15 16  1  0
 15 17  1  0
  7  2  1  0
 17 11  2  0
M  END
>  <inchikey>  (85) 
IAPSGGVSZAFCJP-UHFFFAOYSA-N

>  <tags>  (85) 
fragmenstein_placed,CpKRS_FrAncestor_bulkdock_iter2

>  <ref_pdb>  (85) 
x0540b

>  <energy_score>  (85) 
-20.236028

>  <distance_score>  (85) 
0.392781

>  <HIPPO Pose ID>  (85) 
52887

>  <ref_mols>  (85) 
x0421c

>  <smiles>  (85) 
CC1CCC(C)C1NC(=O)c1cc(Cl)n(C)n1

>  <HIPPO Compound ID>  (85) 
447533

>  <alias>  (85) 
IAPSGGVSZAFCJP-UHFFFAOYSA-N-P13

>  <subsites>  (85) 


>  <placement_batch>  (85) 
CpKRS_FrAncestor_bulkdock_iter2

>  <name>  (85) 
IAPSGGVSZAFCJP-UHFFFAOYSA-N-P13

$$$$
ZUMBZXAXVCHQMA-UHFFFAOYSA-N-P13
     RDKit          3D

 16 17  0  0  0  0  0  0  0  0999 V2000
    3.2707   -8.9088   24.5807 C   0  0  0  0  0  0  0  0  0  0  0  0
    4.7297   -9.3360   24.4520 C   0  0  2  0  0  0  0  0  0  0  0  0
    5.4649   -8.5344   23.3672 C   0  0  0  0  0  0  0  0  0  0  0  0
    5.3294   -9.3405   22.0706 C   0  0  0  0  0  0  0  0  0  0  0  0
    4.6615  -10.6598   22.4675 C   0  0  1  0  0  0  0  0  0  0  0  0
    5.1874  -11.8593   21.7246 C   0  0  0  0  0  0  0  0  0  0  0  0
    4.9122  -10.7740   23.9630 C   0  0  0  0  0  0  0  0  0  0  0  0
    4.0980  -11.7756   24.5875 N   0  0  0  0  0  0  0  0  0  0  0  0
    4.4221  -13.2278   24.9738 C   0  0  0  0  0  0  0  0  0  0  0  0
    5.3762  -13.8663   24.7775 O   0  0  0  0  0  0  0  0  0  0  0  0
    3.2978  -13.7600   25.7765 C   0  0  0  0  0  0  0  0  0  0  0  0
    3.3755  -14.8314   26.7112 C   0  0  0  0  0  0  0  0  0  0  0  0
    2.1859  -14.7743   27.3736 C   0  0  0  0  0  0  0  0  0  0  0  0
    1.6111  -15.5236   28.7788 Cl  0  0  0  0  0  0  0  0  0  0  0  0
    1.4207  -13.8378   26.7638 N   0  0  0  0  0  0  0  0  0  0  0  0
    2.0708  -13.1814   25.7832 N   0  0  0  0  0  0  0  0  0  0  0  0
  2  1  1  6
  2  3  1  0
  3  4  1  0
  4  5  1  0
  5  6  1  6
  5  7  1  0
  7  8  1  0
  8  9  1  0
  9 10  2  0
  9 11  1  0
 11 12  1  0
 12 13  2  0
 13 14  1  0
 13 15  1  0
 15 16  1  0
  7  2  1  0
 16 11  2  0
M  END
>  <inchikey>  (86) 
ZUMBZXAXVCHQMA-UHFFFAOYSA-N

>  <tags>  (86) 
fragmenstein_placed,CpKRS_FrAncestor_bulkdock_iter2

>  <ref_pdb>  (86) 
x0540b

>  <energy_score>  (86) 
-15.939017

>  <distance_score>  (86) 
0.44947

>  <HIPPO Pose ID>  (86) 
52891

>  <ref_mols>  (86) 
x0421c

>  <smiles>  (86) 
CC1CCC(C)C1NC(=O)c1cc(Cl)[nH]n1

>  <HIPPO Compound ID>  (86) 
132585

>  <alias>  (86) 
ZUMBZXAXVCHQMA-UHFFFAOYSA-N-P13

>  <subsites>  (86) 


>  <placement_batch>  (86) 
CpKRS_FrAncestor_bulkdock_iter2

>  <name>  (86) 
ZUMBZXAXVCHQMA-UHFFFAOYSA-N-P13

$$$$
WCIGDPIGVCDNLT-UHFFFAOYSA-N-P11
     RDKit          3D

 19 20  0  0  0  0  0  0  0  0999 V2000
    4.9358   -8.4606   25.1949 C   0  0  0  0  0  0  0  0  0  0  0  0
    4.6705   -9.2241   23.9105 C   0  0  1  0  0  0  0  0  0  0  0  0
    5.3860   -8.5738   22.7287 C   0  0  0  0  0  0  0  0  0  0  0  0
    5.4407   -9.6565   21.6631 C   0  0  0  0  0  0  0  0  0  0  0  0
    5.2949  -10.9927   22.4011 C   0  0  2  0  0  0  0  0  0  0  0  0
    4.0511  -11.7388   21.9484 C   0  0  0  0  0  0  0  0  0  0  0  0
    5.2578  -10.6373   23.8912 C   0  0  0  0  0  0  0  0  0  0  0  0
    4.5319  -11.6277   24.6229 N   0  0  0  0  0  0  0  0  0  0  0  0
    4.9699  -13.0114   25.1388 C   0  0  0  0  0  0  0  0  0  0  0  0
    6.0131  -13.5304   25.1164 O   0  0  0  0  0  0  0  0  0  0  0  0
    3.7753  -13.6928   25.6638 C   0  0  0  0  0  0  0  0  0  0  0  0
    3.7179  -14.8819   26.4253 C   0  0  0  0  0  0  0  0  0  0  0  0
    2.3826  -15.0924   26.6635 C   0  0  0  0  0  0  0  0  0  0  0  0
    1.7210  -14.0775   26.0272 N   0  0  0  0  0  0  0  0  0  0  0  0
    0.2894  -13.7612   26.1217 C   0  0  0  0  0  0  0  0  0  0  0  0
   -0.1135  -12.5732   25.2156 C   0  0  0  0  0  0  0  0  0  0  0  0
   -0.5798  -14.9596   25.7229 C   0  0  0  0  0  0  0  0  0  0  0  0
    0.0378  -13.3665   27.5700 C   0  0  0  0  0  0  0  0  0  0  0  0
    2.5445  -13.1789   25.4644 N   0  0  0  0  0  0  0  0  0  0  0  0
  2  1  1  1
  2  3  1  0
  3  4  1  0
  4  5  1  0
  5  6  1  6
  5  7  1  0
  7  8  1  0
  8  9  1  0
  9 10  2  0
  9 11  1  0
 11 12  1  0
 12 13  2  0
 13 14  1  0
 14 15  1  0
 15 16  1  0
 15 17  1  0
 15 18  1  0
 14 19  1  0
  7  2  1  0
 19 11  2  0
M  END
>  <inchikey>  (87) 
WCIGDPIGVCDNLT-UHFFFAOYSA-N

>  <tags>  (87) 
fragmenstein_placed,CpKRS_FrAncestor_bulkdock_iter2

>  <ref_pdb>  (87) 
x0540b

>  <energy_score>  (87) 
-28.795084

>  <distance_score>  (87) 
0.700252

>  <HIPPO Pose ID>  (87) 
52897

>  <ref_mols>  (87) 
x0421a

>  <smiles>  (87) 
CC1CCC(C)C1NC(=O)c1ccn(C(C)(C)C)n1

>  <HIPPO Compound ID>  (87) 
447534

>  <alias>  (87) 
WCIGDPIGVCDNLT-UHFFFAOYSA-N-P11

>  <subsites>  (87) 


>  <placement_batch>  (87) 
CpKRS_FrAncestor_bulkdock_iter2

>  <name>  (87) 
WCIGDPIGVCDNLT-UHFFFAOYSA-N-P11

$$$$
MLTQCFBZTLNMDW-UHFFFAOYSA-N-P11
     RDKit          3D

 18 19  0  0  0  0  0  0  0  0999 V2000
    4.0371  -11.8310   21.9863 C   0  0  0  0  0  0  0  0  0  0  0  0
    5.1895  -11.0333   22.5571 C   0  0  1  0  0  0  0  0  0  0  0  0
    5.2375   -9.6068   21.9924 C   0  0  0  0  0  0  0  0  0  0  0  0
    5.4836   -8.7042   23.1934 C   0  0  0  0  0  0  0  0  0  0  0  0
    4.7920   -9.4186   24.3560 C   0  0  1  0  0  0  0  0  0  0  0  0
    3.2959   -9.1119   24.4119 C   0  0  0  0  0  0  0  0  0  0  0  0
    5.1420  -10.8889   24.0826 C   0  0  1  0  0  0  0  0  0  0  0  0
    4.2892  -11.8467   24.7161 N   0  0  0  0  0  0  0  0  0  0  0  0
    4.5969  -13.2506   25.2645 C   0  0  0  0  0  0  0  0  0  0  0  0
    5.6095  -13.8204   25.3572 O   0  0  0  0  0  0  0  0  0  0  0  0
    3.3180  -13.7865   25.7810 C   0  0  0  0  0  0  0  0  0  0  0  0
    3.0978  -14.9099   26.6126 C   0  0  0  0  0  0  0  0  0  0  0  0
    1.7341  -14.9634   26.8009 C   0  0  0  0  0  0  0  0  0  0  0  0
    1.2172  -13.9510   26.0502 N   0  0  0  0  0  0  0  0  0  0  0  0
   -0.1690  -13.6560   25.7194 C   0  0  0  0  0  0  0  0  0  0  0  0
   -1.0791  -14.8734   25.6877 C   0  0  0  0  0  0  0  0  0  0  0  0
   -0.7436  -12.5607   26.6076 C   0  0  0  0  0  0  0  0  0  0  0  0
    2.1524  -13.1547   25.5126 N   0  0  0  0  0  0  0  0  0  0  0  0
  2  1  1  6
  2  3  1  0
  3  4  1  0
  4  5  1  0
  5  6  1  6
  5  7  1  0
  7  8  1  6
  8  9  1  0
  9 10  2  0
  9 11  1  0
 11 12  1  0
 12 13  2  0
 13 14  1  0
 14 15  1  0
 15 16  1  0
 15 17  1  0
 14 18  1  0
  7  2  1  0
 18 11  2  0
M  END
>  <inchikey>  (88) 
MLTQCFBZTLNMDW-UHFFFAOYSA-N

>  <tags>  (88) 
fragmenstein_placed,CpKRS_FrAncestor_bulkdock_iter2

>  <ref_pdb>  (88) 
x0540b

>  <energy_score>  (88) 
-30.669478

>  <distance_score>  (88) 
0.771054

>  <HIPPO Pose ID>  (88) 
52905

>  <ref_mols>  (88) 
x0421a

>  <smiles>  (88) 
CC1CCC(C)C1NC(=O)c1ccn(C(C)C)n1

>  <HIPPO Compound ID>  (88) 
447536

>  <alias>  (88) 
MLTQCFBZTLNMDW-UHFFFAOYSA-N-P11

>  <subsites>  (88) 


>  <placement_batch>  (88) 
CpKRS_FrAncestor_bulkdock_iter2

>  <name>  (88) 
MLTQCFBZTLNMDW-UHFFFAOYSA-N-P11

$$$$
RCSNNZOGMFTRLE-UHFFFAOYSA-N-P12
     RDKit          3D

 16 17  0  0  0  0  0  0  0  0999 V2000
    5.2467   -8.3385   25.3144 C   0  0  0  0  0  0  0  0  0  0  0  0
    4.6935   -8.8839   24.0130 C   0  0  1  0  0  0  0  0  0  0  0  0
    5.4390   -8.2632   22.8196 C   0  0  0  0  0  0  0  0  0  0  0  0
    5.3138   -9.2638   21.6759 C   0  0  0  0  0  0  0  0  0  0  0  0
    4.5985  -10.4700   22.2733 C   0  0  1  0  0  0  0  0  0  0  0  0
    5.0188  -11.7865   21.6717 C   0  0  0  0  0  0  0  0  0  0  0  0
    4.9152  -10.3757   23.7624 C   0  0  2  0  0  0  0  0  0  0  0  0
    4.1471  -11.3346   24.4939 N   0  0  0  0  0  0  0  0  0  0  0  0
    4.4623  -12.7984   24.8635 C   0  0  0  0  0  0  0  0  0  0  0  0
    5.4290  -13.4284   24.6966 O   0  0  0  0  0  0  0  0  0  0  0  0
    3.2869  -13.3972   25.5213 C   0  0  0  0  0  0  0  0  0  0  0  0
    3.2809  -14.5613   26.3309 C   0  0  0  0  0  0  0  0  0  0  0  0
    1.9940  -14.6727   26.7907 C   0  0  0  0  0  0  0  0  0  0  0  0
    1.3040  -13.6406   26.2297 N   0  0  0  0  0  0  0  0  0  0  0  0
   -0.0995  -13.3648   26.4156 C   0  0  0  0  0  0  0  0  0  0  0  0
    2.0523  -12.8613   25.4231 N   0  0  0  0  0  0  0  0  0  0  0  0
  2  1  1  1
  2  3  1  0
  3  4  1  0
  4  5  1  0
  5  6  1  6
  5  7  1  0
  7  8  1  1
  8  9  1  0
  9 10  2  0
  9 11  1  0
 11 12  1  0
 12 13  2  0
 13 14  1  0
 14 15  1  0
 14 16  1  0
  7  2  1  0
 16 11  2  0
M  END
>  <inchikey>  (89) 
RCSNNZOGMFTRLE-UHFFFAOYSA-N

>  <tags>  (89) 
fragmenstein_placed,CpKRS_FrAncestor_bulkdock_iter2

>  <ref_pdb>  (89) 
x0540b

>  <energy_score>  (89) 
-14.893784

>  <distance_score>  (89) 
0.374681

>  <HIPPO Pose ID>  (89) 
52922

>  <ref_mols>  (89) 
x0421b

>  <smiles>  (89) 
CC1CCC(C)C1NC(=O)c1ccn(C)n1

>  <HIPPO Compound ID>  (89) 
125229

>  <alias>  (89) 
RCSNNZOGMFTRLE-UHFFFAOYSA-N-P12

>  <subsites>  (89) 


>  <placement_batch>  (89) 
CpKRS_FrAncestor_bulkdock_iter2

>  <name>  (89) 
RCSNNZOGMFTRLE-UHFFFAOYSA-N-P12

$$$$
FKEBQHKVTDXWOB-UHFFFAOYSA-N-P12
     RDKit          3D

 20 21  0  0  0  0  0  0  0  0999 V2000
    4.8571  -11.6564   21.8576 C   0  0  0  0  0  0  0  0  0  0  0  0
    4.0314  -10.4345   22.2284 C   0  0  2  0  0  0  0  0  0  0  0  0
    4.6776   -9.1635   21.6945 C   0  0  0  0  0  0  0  0  0  0  0  0
    5.7408   -8.8188   22.7254 C   0  0  0  0  0  0  0  0  0  0  0  0
    5.2771   -9.4435   24.0587 C   0  0  1  0  0  0  0  0  0  0  0  0
    5.1484   -8.3544   25.1157 C   0  0  0  0  0  0  0  0  0  0  0  0
    3.9402  -10.1283   23.7237 C   0  0  0  0  0  0  0  0  0  0  0  0
    3.5160  -11.2528   24.5098 N   0  0  0  0  0  0  0  0  0  0  0  0
    4.2334  -12.5796   24.8287 C   0  0  0  0  0  0  0  0  0  0  0  0
    5.3117  -12.9370   24.5678 O   0  0  0  0  0  0  0  0  0  0  0  0
    3.2771  -13.4249   25.5814 C   0  0  0  0  0  0  0  0  0  0  0  0
    1.9764  -13.0624   25.6413 N   0  0  0  0  0  0  0  0  0  0  0  0
    1.4180  -13.9497   26.4712 N   0  0  0  0  0  0  0  0  0  0  0  0
    0.0269  -13.8132   26.8286 C   0  0  0  0  0  0  0  0  0  0  0  0
    2.2762  -14.9231   26.8718 C   0  0  0  0  0  0  0  0  0  0  0  0
    3.5086  -14.6211   26.3125 C   0  0  0  0  0  0  0  0  0  0  0  0
    4.7736  -15.3699   26.4719 C   0  0  0  0  0  0  0  0  0  0  0  0
    5.8945  -14.6123   26.4688 F   0  0  0  0  0  0  0  0  0  0  0  0
    4.7885  -16.0399   27.6581 F   0  0  0  0  0  0  0  0  0  0  0  0
    4.9332  -16.3105   25.5044 F   0  0  0  0  0  0  0  0  0  0  0  0
  2  1  1  1
  2  3  1  0
  3  4  1  0
  4  5  1  0
  5  6  1  1
  5  7  1  0
  7  8  1  0
  8  9  1  0
  9 10  2  0
  9 11  1  0
 11 12  2  0
 12 13  1  0
 13 14  1  0
 13 15  1  0
 15 16  2  0
 16 17  1  0
 17 18  1  0
 17 19  1  0
 17 20  1  0
  7  2  1  0
 16 11  1  0
M  END
>  <inchikey>  (90) 
FKEBQHKVTDXWOB-UHFFFAOYSA-N

>  <tags>  (90) 
fragmenstein_placed,CpKRS_FrAncestor_bulkdock_iter2

>  <ref_pdb>  (90) 
x0540b

>  <energy_score>  (90) 
-31.218568

>  <distance_score>  (90) 
0.52735

>  <HIPPO Pose ID>  (90) 
52926

>  <ref_mols>  (90) 
x0421b

>  <smiles>  (90) 
CC1CCC(C)C1NC(=O)c1nn(C)cc1C(F)(F)F

>  <HIPPO Compound ID>  (90) 
294621

>  <alias>  (90) 
FKEBQHKVTDXWOB-UHFFFAOYSA-N-P12

>  <subsites>  (90) 


>  <placement_batch>  (90) 
CpKRS_FrAncestor_bulkdock_iter2

>  <name>  (90) 
FKEBQHKVTDXWOB-UHFFFAOYSA-N-P12

$$$$
CNFBVYBLTGIONJ-UHFFFAOYSA-N-P12
     RDKit          3D

 19 20  0  0  0  0  0  0  0  0999 V2000
    5.0262  -11.8008   21.6716 C   0  0  0  0  0  0  0  0  0  0  0  0
    4.6021  -10.4864   22.2740 C   0  0  2  0  0  0  0  0  0  0  0  0
    5.3147   -9.2774   21.6798 C   0  0  0  0  0  0  0  0  0  0  0  0
    5.4309   -8.2784   22.8252 C   0  0  0  0  0  0  0  0  0  0  0  0
    4.6840   -8.9044   24.0159 C   0  0  2  0  0  0  0  0  0  0  0  0
    5.2315   -8.3529   25.3172 C   0  0  0  0  0  0  0  0  0  0  0  0
    4.9141  -10.3958   23.7647 C   0  0  1  0  0  0  0  0  0  0  0  0
    4.1462  -11.3675   24.4823 N   0  0  0  0  0  0  0  0  0  0  0  0
    4.4886  -12.8158   24.8845 C   0  0  0  0  0  0  0  0  0  0  0  0
    5.4784  -13.4200   24.7625 O   0  0  0  0  0  0  0  0  0  0  0  0
    3.3306  -13.4281   25.5661 C   0  0  0  0  0  0  0  0  0  0  0  0
    2.0933  -12.9015   25.4704 N   0  0  0  0  0  0  0  0  0  0  0  0
    1.3493  -13.6789   26.2790 N   0  0  0  0  0  0  0  0  0  0  0  0
   -0.0578  -13.4139   26.4578 C   0  0  0  0  0  0  0  0  0  0  0  0
    2.0495  -14.6945   26.8533 C   0  0  0  0  0  0  0  0  0  0  0  0
    3.3496  -14.5796   26.4058 C   0  0  0  0  0  0  0  0  0  0  0  0
    4.5240  -15.4163   26.7498 C   0  0  0  0  0  0  0  0  0  0  0  0
    4.4014  -15.9400   28.0042 F   0  0  0  0  0  0  0  0  0  0  0  0
    4.6285  -16.4855   25.9127 F   0  0  0  0  0  0  0  0  0  0  0  0
  2  1  1  6
  2  3  1  0
  3  4  1  0
  4  5  1  0
  5  6  1  1
  5  7  1  0
  7  8  1  1
  8  9  1  0
  9 10  2  0
  9 11  1  0
 11 12  2  0
 12 13  1  0
 13 14  1  0
 13 15  1  0
 15 16  2  0
 16 17  1  0
 17 18  1  0
 17 19  1  0
  7  2  1  0
 16 11  1  0
M  END
>  <inchikey>  (91) 
CNFBVYBLTGIONJ-UHFFFAOYSA-N

>  <tags>  (91) 
fragmenstein_placed,CpKRS_FrAncestor_bulkdock_iter2

>  <ref_pdb>  (91) 
x0540b

>  <energy_score>  (91) 
-26.018259

>  <distance_score>  (91) 
0.31705

>  <HIPPO Pose ID>  (91) 
52930

>  <ref_mols>  (91) 
x0421b

>  <smiles>  (91) 
CC1CCC(C)C1NC(=O)c1nn(C)cc1C(F)F

>  <HIPPO Compound ID>  (91) 
447539

>  <alias>  (91) 
CNFBVYBLTGIONJ-UHFFFAOYSA-N-P12

>  <subsites>  (91) 


>  <placement_batch>  (91) 
CpKRS_FrAncestor_bulkdock_iter2

>  <name>  (91) 
CNFBVYBLTGIONJ-UHFFFAOYSA-N-P12

$$$$
AINQBVGOTSNSOT-UHFFFAOYSA-N-P13
     RDKit          3D

 17 18  0  0  0  0  0  0  0  0999 V2000
    4.8312   -8.2311   25.4006 C   0  0  0  0  0  0  0  0  0  0  0  0
    4.5907   -8.9131   24.0651 C   0  0  1  0  0  0  0  0  0  0  0  0
    5.3785   -8.2178   22.9542 C   0  0  0  0  0  0  0  0  0  0  0  0
    5.2411   -9.1948   21.8079 C   0  0  0  0  0  0  0  0  0  0  0  0
    5.4435  -10.5540   22.4732 C   0  0  2  0  0  0  0  0  0  0  0  0
    4.7095  -11.6676   21.7658 C   0  0  0  0  0  0  0  0  0  0  0  0
    5.1141  -10.3530   23.9676 C   0  0  0  0  0  0  0  0  0  0  0  0
    4.2787  -11.3914   24.5027 N   0  0  0  0  0  0  0  0  0  0  0  0
    4.6061  -12.8563   24.8596 C   0  0  0  0  0  0  0  0  0  0  0  0
    5.5837  -13.4710   24.7036 O   0  0  0  0  0  0  0  0  0  0  0  0
    3.4327  -13.4859   25.5038 C   0  0  0  0  0  0  0  0  0  0  0  0
    2.1981  -12.9286   25.4592 N   0  0  0  0  0  0  0  0  0  0  0  0
    1.4334  -13.7999   26.1400 N   0  0  0  0  0  0  0  0  0  0  0  0
    0.0169  -13.5694   26.2654 C   0  0  0  0  0  0  0  0  0  0  0  0
    2.1118  -14.8571   26.6550 C   0  0  0  0  0  0  0  0  0  0  0  0
    3.4117  -14.6975   26.2476 C   0  0  0  0  0  0  0  0  0  0  0  0
    4.7031  -15.7332   26.6036 Cl  0  0  0  0  0  0  0  0  0  0  0  0
  2  1  1  1
  2  3  1  0
  3  4  1  0
  4  5  1  0
  5  6  1  6
  5  7  1  0
  7  8  1  0
  8  9  1  0
  9 10  2  0
  9 11  1  0
 11 12  2  0
 12 13  1  0
 13 14  1  0
 13 15  1  0
 15 16  2  0
 16 17  1  0
  7  2  1  0
 16 11  1  0
M  END
>  <inchikey>  (92) 
AINQBVGOTSNSOT-UHFFFAOYSA-N

>  <tags>  (92) 
fragmenstein_placed,CpKRS_FrAncestor_bulkdock_iter2

>  <ref_pdb>  (92) 
x0540b

>  <energy_score>  (92) 
-20.61733

>  <distance_score>  (92) 
0.373212

>  <HIPPO Pose ID>  (92) 
52935

>  <ref_mols>  (92) 
x0421c

>  <smiles>  (92) 
CC1CCC(C)C1NC(=O)c1nn(C)cc1Cl

>  <HIPPO Compound ID>  (92) 
15919

>  <alias>  (92) 
AINQBVGOTSNSOT-UHFFFAOYSA-N-P13

>  <subsites>  (92) 


>  <placement_batch>  (92) 
CpKRS_FrAncestor_bulkdock_iter2

>  <name>  (92) 
AINQBVGOTSNSOT-UHFFFAOYSA-N-P13

$$$$
TUYVXLHCNQQFHZ-UHFFFAOYSA-N-P13
     RDKit          3D

 17 18  0  0  0  0  0  0  0  0999 V2000
    4.8544   -8.2786   25.3523 C   0  0  0  0  0  0  0  0  0  0  0  0
    4.6117   -9.0005   24.0382 C   0  0  1  0  0  0  0  0  0  0  0  0
    5.3837   -8.3265   22.9042 C   0  0  0  0  0  0  0  0  0  0  0  0
    5.2650   -9.3357   21.7829 C   0  0  0  0  0  0  0  0  0  0  0  0
    5.4108  -10.6910   22.4763 C   0  0  2  0  0  0  0  0  0  0  0  0
    4.5659  -11.7649   21.8358 C   0  0  0  0  0  0  0  0  0  0  0  0
    5.1541  -10.4352   23.9710 C   0  0  0  0  0  0  0  0  0  0  0  0
    4.3685  -11.4571   24.6038 N   0  0  0  0  0  0  0  0  0  0  0  0
    4.7225  -12.9182   24.9599 C   0  0  0  0  0  0  0  0  0  0  0  0
    5.7309  -13.4960   24.8647 O   0  0  0  0  0  0  0  0  0  0  0  0
    3.5446  -13.5812   25.5449 C   0  0  0  0  0  0  0  0  0  0  0  0
    2.2931  -13.0655   25.4704 N   0  0  0  0  0  0  0  0  0  0  0  0
    1.5465  -13.9493   26.1646 N   0  0  0  0  0  0  0  0  0  0  0  0
    0.1308  -13.7254   26.3178 C   0  0  0  0  0  0  0  0  0  0  0  0
    2.2462  -14.9980   26.6768 C   0  0  0  0  0  0  0  0  0  0  0  0
    3.5355  -14.7851   26.2788 C   0  0  0  0  0  0  0  0  0  0  0  0
    4.5783  -15.5650   26.5815 F   0  0  0  0  0  0  0  0  0  0  0  0
  2  1  1  1
  2  3  1  0
  3  4  1  0
  4  5  1  0
  5  6  1  6
  5  7  1  0
  7  8  1  0
  8  9  1  0
  9 10  2  0
  9 11  1  0
 11 12  2  0
 12 13  1  0
 13 14  1  0
 13 15  1  0
 15 16  2  0
 16 17  1  0
  7  2  1  0
 16 11  1  0
M  END
>  <inchikey>  (93) 
TUYVXLHCNQQFHZ-UHFFFAOYSA-N

>  <tags>  (93) 
fragmenstein_placed,CpKRS_FrAncestor_bulkdock_iter2

>  <ref_pdb>  (93) 
x0540b

>  <energy_score>  (93) 
-18.490371

>  <distance_score>  (93) 
0.344565

>  <HIPPO Pose ID>  (93) 
52939

>  <ref_mols>  (93) 
x0421c

>  <smiles>  (93) 
CC1CCC(C)C1NC(=O)c1nn(C)cc1F

>  <HIPPO Compound ID>  (93) 
447540

>  <alias>  (93) 
TUYVXLHCNQQFHZ-UHFFFAOYSA-N-P13

>  <subsites>  (93) 


>  <placement_batch>  (93) 
CpKRS_FrAncestor_bulkdock_iter2

>  <name>  (93) 
TUYVXLHCNQQFHZ-UHFFFAOYSA-N-P13

$$$$
DXDLOQKVTCVGQS-UHFFFAOYSA-N-P13
     RDKit          3D

 18 19  0  0  0  0  0  0  0  0999 V2000
    3.3420   -8.9247   24.5671 C   0  0  0  0  0  0  0  0  0  0  0  0
    4.8463   -9.1473   24.4221 C   0  0  2  0  0  0  0  0  0  0  0  0
    5.4398   -8.2923   23.2995 C   0  0  0  0  0  0  0  0  0  0  0  0
    5.1378   -9.0996   22.0462 C   0  0  0  0  0  0  0  0  0  0  0  0
    5.4460  -10.5312   22.4796 C   0  0  2  0  0  0  0  0  0  0  0  0
    4.7149  -11.5890   21.6999 C   0  0  0  0  0  0  0  0  0  0  0  0
    5.2418  -10.5731   23.9997 C   0  0  2  0  0  0  0  0  0  0  0  0
    4.3958  -11.6248   24.4899 N   0  0  0  0  0  0  0  0  0  0  0  0
    4.7032  -13.1032   24.7718 C   0  0  0  0  0  0  0  0  0  0  0  0
    5.6693  -13.7226   24.5796 O   0  0  0  0  0  0  0  0  0  0  0  0
    3.5426  -13.6815   25.4777 C   0  0  0  0  0  0  0  0  0  0  0  0
    2.3016  -13.1403   25.3812 N   0  0  0  0  0  0  0  0  0  0  0  0
    1.5838  -13.8349   26.2894 N   0  0  0  0  0  0  0  0  0  0  0  0
    0.1653  -13.5993   26.3904 C   0  0  0  0  0  0  0  0  0  0  0  0
    2.3366  -14.7127   27.0026 C   0  0  0  0  0  0  0  0  0  0  0  0
    1.7268  -15.4832   28.3905 Cl  0  0  0  0  0  0  0  0  0  0  0  0
    3.5752  -14.7357   26.4268 C   0  0  0  0  0  0  0  0  0  0  0  0
    4.9040  -15.6836   26.8582 Cl  0  0  0  0  0  0  0  0  0  0  0  0
  2  1  1  6
  2  3  1  0
  3  4  1  0
  4  5  1  0
  5  6  1  6
  5  7  1  0
  7  8  1  6
  8  9  1  0
  9 10  2  0
  9 11  1  0
 11 12  2  0
 12 13  1  0
 13 14  1  0
 13 15  1  0
 15 16  1  0
 15 17  2  0
 17 18  1  0
  7  2  1  0
 17 11  1  0
M  END
>  <inchikey>  (94) 
DXDLOQKVTCVGQS-UHFFFAOYSA-N

>  <tags>  (94) 
fragmenstein_placed,CpKRS_FrAncestor_bulkdock_iter2

>  <ref_pdb>  (94) 
x0540b

>  <energy_score>  (94) 
-20.170404

>  <distance_score>  (94) 
0.348186

>  <HIPPO Pose ID>  (94) 
52943

>  <ref_mols>  (94) 
x0421c

>  <smiles>  (94) 
CC1CCC(C)C1NC(=O)c1nn(C)c(Cl)c1Cl

>  <HIPPO Compound ID>  (94) 
447541

>  <alias>  (94) 
DXDLOQKVTCVGQS-UHFFFAOYSA-N-P13

>  <subsites>  (94) 


>  <placement_batch>  (94) 
CpKRS_FrAncestor_bulkdock_iter2

>  <name>  (94) 
DXDLOQKVTCVGQS-UHFFFAOYSA-N-P13

$$$$
KSWJWTKGCHLIIX-UHFFFAOYSA-N-P54
     RDKit          3D

 12 12  0  0  0  0  0  0  0  0999 V2000
    9.5311  -36.1315   10.7744 C   0  0  0  0  0  0  0  0  0  0  0  0
    8.5176  -37.0921   11.3283 C   0  0  0  0  0  0  0  0  0  0  0  0
    8.9158  -37.9275   12.3862 C   0  0  0  0  0  0  0  0  0  0  0  0
    8.0173  -38.8102   12.9855 C   0  0  0  0  0  0  0  0  0  0  0  0
    6.7082  -38.8865   12.5254 C   0  0  0  0  0  0  0  0  0  0  0  0
    6.2997  -38.0789   11.4648 C   0  0  0  0  0  0  0  0  0  0  0  0
    7.1972  -37.1839   10.8641 C   0  0  0  0  0  0  0  0  0  0  0  0
    6.6980  -36.3672    9.8020 N   0  0  0  0  0  0  0  0  0  0  0  0
    7.1021  -36.7480    8.2072 S   0  0  0  0  0  0  0  0  0  0  0  0
    6.5539  -38.4332    8.0425 C   0  0  0  0  0  0  0  0  0  0  0  0
    8.5351  -36.7160    8.0295 O   0  0  0  0  0  0  0  0  0  0  0  0
    6.2268  -35.9318    7.3917 O   0  0  0  0  0  0  0  0  0  0  0  0
  1  2  1  0
  2  3  2  0
  3  4  1  0
  4  5  2  0
  5  6  1  0
  6  7  2  0
  7  8  1  0
  8  9  1  0
  9 10  1  0
  9 11  2  0
  9 12  2  0
  7  2  1  0
M  END
>  <inchikey>  (95) 
KSWJWTKGCHLIIX-UHFFFAOYSA-N

>  <tags>  (95) 
fragmenstein_placed,CpKRS_FrAncestor_bulkdock_iter2

>  <ref_pdb>  (95) 
x0540b

>  <energy_score>  (95) 
-26.941246

>  <distance_score>  (95) 
0.322665

>  <HIPPO Pose ID>  (95) 
52951

>  <ref_mols>  (95) 
x0639c

>  <smiles>  (95) 
Cc1ccccc1NS(C)(=O)=O

>  <HIPPO Compound ID>  (95) 
447542

>  <alias>  (95) 
KSWJWTKGCHLIIX-UHFFFAOYSA-N-P54

>  <subsites>  (95) 


>  <placement_batch>  (95) 
CpKRS_FrAncestor_bulkdock_iter2

>  <name>  (95) 
KSWJWTKGCHLIIX-UHFFFAOYSA-N-P54

$$$$
UFSGFJWACVFYHT-UHFFFAOYSA-N-P54
     RDKit          3D

 13 13  0  0  0  0  0  0  0  0999 V2000
    9.6076  -36.1109   10.8434 C   0  0  0  0  0  0  0  0  0  0  0  0
    8.5860  -37.0564   11.4051 C   0  0  0  0  0  0  0  0  0  0  0  0
    8.9472  -37.8586   12.4990 C   0  0  0  0  0  0  0  0  0  0  0  0
    8.0438  -38.7660   13.0538 C   0  0  0  0  0  0  0  0  0  0  0  0
    6.7725  -38.9060   12.5081 C   0  0  0  0  0  0  0  0  0  0  0  0
    6.4013  -38.1310   11.4108 C   0  0  0  0  0  0  0  0  0  0  0  0
    7.2967  -37.1985   10.8703 C   0  0  0  0  0  0  0  0  0  0  0  0
    6.8603  -36.4057    9.7492 N   0  0  0  0  0  0  0  0  0  0  0  0
    7.2827  -37.0647    8.2201 S   0  0  0  0  0  0  0  0  0  0  0  0
    8.5920  -37.6742    8.2908 O   0  0  0  0  0  0  0  0  0  0  0  0
    6.1139  -37.8091    7.8025 O   0  0  0  0  0  0  0  0  0  0  0  0
    7.4075  -35.5590    7.2631 C   0  0  0  0  0  0  0  0  0  0  0  0
    7.7765  -35.8815    5.3808 Br  0  0  0  0  0  0  0  0  0  0  0  0
  1  2  1  0
  2  3  2  0
  3  4  1  0
  4  5  2  0
  5  6  1  0
  6  7  2  0
  7  8  1  0
  8  9  1  0
  9 10  2  0
  9 11  2  0
  9 12  1  0
 12 13  1  0
  7  2  1  0
M  END
>  <inchikey>  (96) 
UFSGFJWACVFYHT-UHFFFAOYSA-N

>  <tags>  (96) 
fragmenstein_placed,CpKRS_FrAncestor_bulkdock_iter2

>  <ref_pdb>  (96) 
x0540b

>  <energy_score>  (96) 
-18.354561

>  <distance_score>  (96) 
0.429566

>  <HIPPO Pose ID>  (96) 
52954

>  <ref_mols>  (96) 
x0639c

>  <smiles>  (96) 
Cc1ccccc1NS(=O)(=O)CBr

>  <HIPPO Compound ID>  (96) 
447543

>  <alias>  (96) 
UFSGFJWACVFYHT-UHFFFAOYSA-N-P54

>  <subsites>  (96) 


>  <placement_batch>  (96) 
CpKRS_FrAncestor_bulkdock_iter2

>  <name>  (96) 
UFSGFJWACVFYHT-UHFFFAOYSA-N-P54

$$$$
ORRVCAXPHAWPLV-UHFFFAOYSA-N-P54
     RDKit          3D

 14 14  0  0  0  0  0  0  0  0999 V2000
    9.6052  -36.1186   10.8646 C   0  0  0  0  0  0  0  0  0  0  0  0
    8.5879  -37.0711   11.4231 C   0  0  0  0  0  0  0  0  0  0  0  0
    8.9526  -37.8784   12.5118 C   0  0  0  0  0  0  0  0  0  0  0  0
    8.0516  -38.7904   13.0632 C   0  0  0  0  0  0  0  0  0  0  0  0
    6.7795  -38.9298   12.5189 C   0  0  0  0  0  0  0  0  0  0  0  0
    6.4051  -38.1494   11.4266 C   0  0  0  0  0  0  0  0  0  0  0  0
    7.2979  -37.2126   10.8900 C   0  0  0  0  0  0  0  0  0  0  0  0
    6.8571  -36.4118    9.7785 N   0  0  0  0  0  0  0  0  0  0  0  0
    7.2742  -37.0380    8.2452 S   0  0  0  0  0  0  0  0  0  0  0  0
    6.1157  -37.7826    7.8019 O   0  0  0  0  0  0  0  0  0  0  0  0
    8.5857  -37.6444    8.2984 O   0  0  0  0  0  0  0  0  0  0  0  0
    7.4102  -35.5169    7.2826 C   0  0  0  0  0  0  0  0  0  0  0  0
    7.8031  -35.8496    5.8456 C   0  0  0  0  0  0  0  0  0  0  0  0
    6.1192  -34.7059    7.3112 C   0  0  0  0  0  0  0  0  0  0  0  0
  1  2  1  0
  2  3  2  0
  3  4  1  0
  4  5  2  0
  5  6  1  0
  6  7  2  0
  7  8  1  0
  8  9  1  0
  9 10  2  0
  9 11  2  0
  9 12  1  0
 12 13  1  0
 12 14  1  0
  7  2  1  0
M  END
>  <inchikey>  (97) 
ORRVCAXPHAWPLV-UHFFFAOYSA-N

>  <tags>  (97) 
fragmenstein_placed,CpKRS_FrAncestor_bulkdock_iter2

>  <ref_pdb>  (97) 
x0540b

>  <energy_score>  (97) 
-36.353382

>  <distance_score>  (97) 
0.423957

>  <HIPPO Pose ID>  (97) 
52957

>  <ref_mols>  (97) 
x0639c

>  <smiles>  (97) 
Cc1ccccc1NS(=O)(=O)C(C)C

>  <HIPPO Compound ID>  (97) 
447544

>  <alias>  (97) 
ORRVCAXPHAWPLV-UHFFFAOYSA-N-P54

>  <subsites>  (97) 


>  <placement_batch>  (97) 
CpKRS_FrAncestor_bulkdock_iter2

>  <name>  (97) 
ORRVCAXPHAWPLV-UHFFFAOYSA-N-P54

$$$$
DEJVLATUIDOKDC-UHFFFAOYSA-N-P54
     RDKit          3D

 14 14  0  0  0  0  0  0  0  0999 V2000
    9.6484  -36.1400   10.8847 C   0  0  0  0  0  0  0  0  0  0  0  0
    8.6038  -37.0742   11.4211 C   0  0  0  0  0  0  0  0  0  0  0  0
    8.9243  -37.8876   12.5189 C   0  0  0  0  0  0  0  0  0  0  0  0
    7.9908  -38.7791   13.0491 C   0  0  0  0  0  0  0  0  0  0  0  0
    6.7294  -38.8906   12.4747 C   0  0  0  0  0  0  0  0  0  0  0  0
    6.3984  -38.1035   11.3729 C   0  0  0  0  0  0  0  0  0  0  0  0
    7.3243  -37.1871   10.8565 C   0  0  0  0  0  0  0  0  0  0  0  0
    6.9360  -36.3851    9.7216 N   0  0  0  0  0  0  0  0  0  0  0  0
    7.2903  -37.1219    8.2033 S   0  0  0  0  0  0  0  0  0  0  0  0
    8.5613  -37.8111    8.2869 O   0  0  0  0  0  0  0  0  0  0  0  0
    6.0758  -37.8490    7.8822 O   0  0  0  0  0  0  0  0  0  0  0  0
    7.4315  -35.6875    7.0943 C   0  0  0  0  0  0  0  0  0  0  0  0
    7.7216  -36.2677    5.4430 Cl  0  0  0  0  0  0  0  0  0  0  0  0
    8.7323  -34.6165    7.6336 Cl  0  0  0  0  0  0  0  0  0  0  0  0
  1  2  1  0
  2  3  2  0
  3  4  1  0
  4  5  2  0
  5  6  1  0
  6  7  2  0
  7  8  1  0
  8  9  1  0
  9 10  2  0
  9 11  2  0
  9 12  1  0
 12 13  1  0
 12 14  1  0
  7  2  1  0
M  END
>  <inchikey>  (98) 
DEJVLATUIDOKDC-UHFFFAOYSA-N

>  <tags>  (98) 
fragmenstein_placed,CpKRS_FrAncestor_bulkdock_iter2

>  <ref_pdb>  (98) 
x0540b

>  <energy_score>  (98) 
-19.208431

>  <distance_score>  (98) 
0.463496

>  <HIPPO Pose ID>  (98) 
52960

>  <ref_mols>  (98) 
x0639c

>  <smiles>  (98) 
Cc1ccccc1NS(=O)(=O)C(Cl)Cl

>  <HIPPO Compound ID>  (98) 
447545

>  <alias>  (98) 
DEJVLATUIDOKDC-UHFFFAOYSA-N-P54

>  <subsites>  (98) 


>  <placement_batch>  (98) 
CpKRS_FrAncestor_bulkdock_iter2

>  <name>  (98) 
DEJVLATUIDOKDC-UHFFFAOYSA-N-P54

$$$$
CYAUHHMHGIBDNS-UHFFFAOYSA-N-P54
     RDKit          3D

 13 13  0  0  0  0  0  0  0  0999 V2000
    9.6109  -36.1103   10.8456 C   0  0  0  0  0  0  0  0  0  0  0  0
    8.5894  -37.0559   11.4074 C   0  0  0  0  0  0  0  0  0  0  0  0
    8.9500  -37.8582   12.5014 C   0  0  0  0  0  0  0  0  0  0  0  0
    8.0463  -38.7659   13.0553 C   0  0  0  0  0  0  0  0  0  0  0  0
    6.7755  -38.9062   12.5086 C   0  0  0  0  0  0  0  0  0  0  0  0
    6.4050  -38.1313   11.4109 C   0  0  0  0  0  0  0  0  0  0  0  0
    7.3007  -37.1986   10.8714 C   0  0  0  0  0  0  0  0  0  0  0  0
    6.8655  -36.4059    9.7500 N   0  0  0  0  0  0  0  0  0  0  0  0
    7.2893  -37.0650    8.2186 S   0  0  0  0  0  0  0  0  0  0  0  0
    8.5838  -37.7047    8.3037 O   0  0  0  0  0  0  0  0  0  0  0  0
    6.1074  -37.7869    7.7958 O   0  0  0  0  0  0  0  0  0  0  0  0
    7.4531  -35.5508    7.2686 C   0  0  0  0  0  0  0  0  0  0  0  0
    7.7776  -35.9518    5.5733 Cl  0  0  0  0  0  0  0  0  0  0  0  0
  1  2  1  0
  2  3  2  0
  3  4  1  0
  4  5  2  0
  5  6  1  0
  6  7  2  0
  7  8  1  0
  8  9  1  0
  9 10  2  0
  9 11  2  0
  9 12  1  0
 12 13  1  0
  7  2  1  0
M  END
>  <inchikey>  (99) 
CYAUHHMHGIBDNS-UHFFFAOYSA-N

>  <tags>  (99) 
fragmenstein_placed,CpKRS_FrAncestor_bulkdock_iter2

>  <ref_pdb>  (99) 
x0540b

>  <energy_score>  (99) 
-18.372677

>  <distance_score>  (99) 
0.433794

>  <HIPPO Pose ID>  (99) 
52963

>  <ref_mols>  (99) 
x0639c

>  <smiles>  (99) 
Cc1ccccc1NS(=O)(=O)CCl

>  <HIPPO Compound ID>  (99) 
447546

>  <alias>  (99) 
CYAUHHMHGIBDNS-UHFFFAOYSA-N-P54

>  <subsites>  (99) 


>  <placement_batch>  (99) 
CpKRS_FrAncestor_bulkdock_iter2

>  <name>  (99) 
CYAUHHMHGIBDNS-UHFFFAOYSA-N-P54

$$$$
MJEMZKGDNXNTPX-UHFFFAOYSA-N-P54
     RDKit          3D

 14 14  0  0  0  0  0  0  0  0999 V2000
    9.5473  -36.1472   10.7637 C   0  0  0  0  0  0  0  0  0  0  0  0
    8.5221  -37.0902   11.3178 C   0  0  0  0  0  0  0  0  0  0  0  0
    8.9137  -37.9611   12.3500 C   0  0  0  0  0  0  0  0  0  0  0  0
    8.0084  -38.8548   12.9224 C   0  0  0  0  0  0  0  0  0  0  0  0
    6.7031  -38.9162   12.4501 C   0  0  0  0  0  0  0  0  0  0  0  0
    6.3005  -38.0718   11.4158 C   0  0  0  0  0  0  0  0  0  0  0  0
    7.1972  -37.1475   10.8587 C   0  0  0  0  0  0  0  0  0  0  0  0
    6.6925  -36.2485    9.8524 N   0  0  0  0  0  0  0  0  0  0  0  0
    6.8335  -36.7440    8.2419 S   0  0  0  0  0  0  0  0  0  0  0  0
    6.8928  -38.1838    8.1798 O   0  0  0  0  0  0  0  0  0  0  0  0
    5.8212  -36.0121    7.5143 O   0  0  0  0  0  0  0  0  0  0  0  0
    8.3368  -36.0943    7.8253 N   0  0  0  0  0  0  0  0  0  0  0  0
    8.3761  -34.6155    7.7475 C   0  0  0  0  0  0  0  0  0  0  0  0
    8.9432  -36.7188    6.6317 C   0  0  0  0  0  0  0  0  0  0  0  0
  1  2  1  0
  2  3  2  0
  3  4  1  0
  4  5  2  0
  5  6  1  0
  6  7  2  0
  7  8  1  0
  8  9  1  0
  9 10  2  0
  9 11  2  0
  9 12  1  0
 12 13  1  0
 12 14  1  0
  7  2  1  0
M  END
>  <inchikey>  (100) 
MJEMZKGDNXNTPX-UHFFFAOYSA-N

>  <tags>  (100) 
fragmenstein_placed,CpKRS_FrAncestor_bulkdock_iter2

>  <ref_pdb>  (100) 
x0540b

>  <energy_score>  (100) 
-46.318271

>  <distance_score>  (100) 
0.322702

>  <HIPPO Pose ID>  (100) 
52966

>  <ref_mols>  (100) 
x0639c

>  <smiles>  (100) 
Cc1ccccc1NS(=O)(=O)N(C)C

>  <HIPPO Compound ID>  (100) 
447547

>  <alias>  (100) 
MJEMZKGDNXNTPX-UHFFFAOYSA-N-P54

>  <subsites>  (100) 


>  <placement_batch>  (100) 
CpKRS_FrAncestor_bulkdock_iter2

>  <name>  (100) 
MJEMZKGDNXNTPX-UHFFFAOYSA-N-P54

$$$$
DFELCPJRLPBUDJ-UHFFFAOYSA-N-P54
     RDKit          3D

 12 12  0  0  0  0  0  0  0  0999 V2000
    9.6035  -36.1375   10.7646 C   0  0  0  0  0  0  0  0  0  0  0  0
    8.5715  -37.0692   11.3293 C   0  0  0  0  0  0  0  0  0  0  0  0
    8.9206  -37.8907   12.4116 C   0  0  0  0  0  0  0  0  0  0  0  0
    7.9868  -38.7556   12.9858 C   0  0  0  0  0  0  0  0  0  0  0  0
    6.6925  -38.8222   12.4786 C   0  0  0  0  0  0  0  0  0  0  0  0
    6.3331  -38.0257   11.3933 C   0  0  0  0  0  0  0  0  0  0  0  0
    7.2739  -37.1699   10.8106 C   0  0  0  0  0  0  0  0  0  0  0  0
    6.8438  -36.3384    9.8076 O   0  0  0  0  0  0  0  0  0  0  0  0
    7.0506  -36.7894    8.2542 S   0  0  0  0  0  0  0  0  0  0  0  0
    6.3928  -38.3306    8.1266 N   0  0  0  0  0  0  0  0  0  0  0  0
    6.2104  -35.9632    7.4175 O   0  0  0  0  0  0  0  0  0  0  0  0
    8.4563  -36.9593    7.9662 O   0  0  0  0  0  0  0  0  0  0  0  0
  1  2  1  0
  2  3  2  0
  3  4  1  0
  4  5  2  0
  5  6  1  0
  6  7  2  0
  7  8  1  0
  8  9  1  0
  9 10  1  0
  9 11  2  0
  9 12  2  0
  7  2  1  0
M  END
>  <inchikey>  (101) 
DFELCPJRLPBUDJ-UHFFFAOYSA-N

>  <tags>  (101) 
fragmenstein_placed,CpKRS_FrAncestor_bulkdock_iter2

>  <ref_pdb>  (101) 
x0540b

>  <energy_score>  (101) 
-21.898832

>  <distance_score>  (101) 
0.298814

>  <HIPPO Pose ID>  (101) 
52969

>  <ref_mols>  (101) 
x0639c

>  <smiles>  (101) 
Cc1ccccc1OS(N)(=O)=O

>  <HIPPO Compound ID>  (101) 
447548

>  <alias>  (101) 
DFELCPJRLPBUDJ-UHFFFAOYSA-N-P54

>  <subsites>  (101) 


>  <placement_batch>  (101) 
CpKRS_FrAncestor_bulkdock_iter2

>  <name>  (101) 
DFELCPJRLPBUDJ-UHFFFAOYSA-N-P54

$$$$
YCMLQMDWSXFTIF-UHFFFAOYSA-N-P54
     RDKit          3D

 11 11  0  0  0  0  0  0  0  0999 V2000
    9.6725  -36.4287   10.7491 C   0  0  0  0  0  0  0  0  0  0  0  0
    8.6131  -37.2995   11.3667 C   0  0  0  0  0  0  0  0  0  0  0  0
    8.9567  -38.1062   12.4619 C   0  0  0  0  0  0  0  0  0  0  0  0
    8.0039  -38.9133   13.0849 C   0  0  0  0  0  0  0  0  0  0  0  0
    6.6912  -38.9322   12.6240 C   0  0  0  0  0  0  0  0  0  0  0  0
    6.3216  -38.1293   11.5463 C   0  0  0  0  0  0  0  0  0  0  0  0
    7.2741  -37.3068   10.9271 C   0  0  0  0  0  0  0  0  0  0  0  0
    6.7637  -36.1852    9.6507 S   0  0  0  0  0  0  0  0  0  0  0  0
    5.0805  -36.2194    9.6753 N   0  0  0  0  0  0  0  0  0  0  0  0
    7.1430  -36.7300    8.3703 O   0  0  0  0  0  0  0  0  0  0  0  0
    7.1035  -34.8446   10.0772 O   0  0  0  0  0  0  0  0  0  0  0  0
  1  2  1  0
  2  3  2  0
  3  4  1  0
  4  5  2  0
  5  6  1  0
  6  7  2  0
  7  8  1  0
  8  9  1  0
  8 10  2  0
  8 11  2  0
  7  2  1  0
M  END
>  <inchikey>  (102) 
YCMLQMDWSXFTIF-UHFFFAOYSA-N

>  <tags>  (102) 
fragmenstein_placed,CpKRS_FrAncestor_bulkdock_iter2

>  <ref_pdb>  (102) 
x0540b

>  <energy_score>  (102) 
-27.498079

>  <distance_score>  (102) 
0.231708

>  <HIPPO Pose ID>  (102) 
52972

>  <ref_mols>  (102) 
x0639c

>  <smiles>  (102) 
Cc1ccccc1S(N)(=O)=O

>  <HIPPO Compound ID>  (102) 
447549

>  <alias>  (102) 
YCMLQMDWSXFTIF-UHFFFAOYSA-N-P54

>  <subsites>  (102) 


>  <placement_batch>  (102) 
CpKRS_FrAncestor_bulkdock_iter2

>  <name>  (102) 
YCMLQMDWSXFTIF-UHFFFAOYSA-N-P54

$$$$
SAERAINFZWAKGQ-UHFFFAOYSA-N-P54
     RDKit          3D

 11 11  0  0  0  0  0  0  0  0999 V2000
    9.6362  -36.4714   10.6268 C   0  0  0  0  0  0  0  0  0  0  0  0
    8.6143  -37.3424   11.3031 C   0  0  0  0  0  0  0  0  0  0  0  0
    9.0300  -38.1633   12.3628 C   0  0  0  0  0  0  0  0  0  0  0  0
    8.1166  -38.9581   13.0586 C   0  0  0  0  0  0  0  0  0  0  0  0
    6.7699  -38.9518   12.7087 C   0  0  0  0  0  0  0  0  0  0  0  0
    6.3284  -38.1352   11.6710 C   0  0  0  0  0  0  0  0  0  0  0  0
    7.2439  -37.3266   10.9793 C   0  0  0  0  0  0  0  0  0  0  0  0
    6.6079  -36.1900    9.7660 S   0  0  0  0  0  0  0  0  0  0  0  0
    7.1391  -34.8774   10.0871 O   0  0  0  0  0  0  0  0  0  0  0  0
    5.1794  -36.4037    9.6402 O   0  0  0  0  0  0  0  0  0  0  0  0
    7.2335  -36.6073    8.3664 F   0  0  0  0  0  0  0  0  0  0  0  0
  1  2  1  0
  2  3  2  0
  3  4  1  0
  4  5  2  0
  5  6  1  0
  6  7  2  0
  7  8  1  0
  8  9  2  0
  8 10  2  0
  8 11  1  0
  7  2  1  0
M  END
>  <inchikey>  (103) 
SAERAINFZWAKGQ-UHFFFAOYSA-N

>  <tags>  (103) 
fragmenstein_placed,CpKRS_FrAncestor_bulkdock_iter2

>  <ref_pdb>  (103) 
x0540b

>  <energy_score>  (103) 
-18.744871

>  <distance_score>  (103) 
0.21712

>  <HIPPO Pose ID>  (103) 
52975

>  <ref_mols>  (103) 
x0639c

>  <smiles>  (103) 
Cc1ccccc1S(=O)(=O)F

>  <HIPPO Compound ID>  (103) 
447550

>  <alias>  (103) 
SAERAINFZWAKGQ-UHFFFAOYSA-N-P54

>  <subsites>  (103) 


>  <placement_batch>  (103) 
CpKRS_FrAncestor_bulkdock_iter2

>  <name>  (103) 
SAERAINFZWAKGQ-UHFFFAOYSA-N-P54

$$$$
OOANNWPEHWZSDZ-UHFFFAOYSA-N-P54
     RDKit          3D

 15 15  0  0  0  0  0  0  0  0999 V2000
    9.6517  -36.4494   10.6718 C   0  0  0  0  0  0  0  0  0  0  0  0
    8.6493  -37.3313   11.3618 C   0  0  0  0  0  0  0  0  0  0  0  0
    9.0964  -38.1451   12.4159 C   0  0  0  0  0  0  0  0  0  0  0  0
    8.2098  -38.9493   13.1343 C   0  0  0  0  0  0  0  0  0  0  0  0
    6.8560  -38.9563   12.8183 C   0  0  0  0  0  0  0  0  0  0  0  0
    6.3846  -38.1505   11.7859 C   0  0  0  0  0  0  0  0  0  0  0  0
    7.2737  -37.3423   11.0565 C   0  0  0  0  0  0  0  0  0  0  0  0
    6.5742  -36.2394    9.8405 S   0  0  0  0  0  0  0  0  0  0  0  0
    5.1377  -36.4036    9.8300 O   0  0  0  0  0  0  0  0  0  0  0  0
    7.1549  -34.9335   10.0836 O   0  0  0  0  0  0  0  0  0  0  0  0
    7.1996  -36.7818    8.3919 N   0  0  0  0  0  0  0  0  0  0  0  0
    6.6591  -37.8984    7.5901 C   0  0  0  0  0  0  0  0  0  0  0  0
    6.2903  -39.1226    8.4273 C   0  0  0  0  0  0  0  0  0  0  0  0
    5.4513  -37.4065    6.7847 C   0  0  0  0  0  0  0  0  0  0  0  0
    7.7757  -38.3030    6.6097 C   0  0  0  0  0  0  0  0  0  0  0  0
  1  2  1  0
  2  3  2  0
  3  4  1  0
  4  5  2  0
  5  6  1  0
  6  7  2  0
  7  8  1  0
  8  9  2  0
  8 10  2  0
  8 11  1  0
 11 12  1  0
 12 13  1  0
 12 14  1  0
 12 15  1  0
  7  2  1  0
M  END
>  <inchikey>  (104) 
OOANNWPEHWZSDZ-UHFFFAOYSA-N

>  <tags>  (104) 
fragmenstein_placed,CpKRS_FrAncestor_bulkdock_iter2

>  <ref_pdb>  (104) 
x0540b

>  <energy_score>  (104) 
-56.124331

>  <distance_score>  (104) 
0.237724

>  <HIPPO Pose ID>  (104) 
52978

>  <ref_mols>  (104) 
x0639c

>  <smiles>  (104) 
Cc1ccccc1S(=O)(=O)NC(C)(C)C

>  <HIPPO Compound ID>  (104) 
311264

>  <alias>  (104) 
OOANNWPEHWZSDZ-UHFFFAOYSA-N-P54

>  <subsites>  (104) 


>  <placement_batch>  (104) 
CpKRS_FrAncestor_bulkdock_iter2

>  <name>  (104) 
OOANNWPEHWZSDZ-UHFFFAOYSA-N-P54

$$$$
WBKZQBTWNIAIOF-UHFFFAOYSA-N-P54
     RDKit          3D

 15 15  0  0  0  0  0  0  0  0999 V2000
    9.6529  -36.4333   10.7072 C   0  0  0  0  0  0  0  0  0  0  0  0
    8.6176  -37.3193   11.3402 C   0  0  0  0  0  0  0  0  0  0  0  0
    9.0151  -38.1631   12.3904 C   0  0  0  0  0  0  0  0  0  0  0  0
    8.0936  -38.9789   13.0497 C   0  0  0  0  0  0  0  0  0  0  0  0
    6.7555  -38.9727   12.6712 C   0  0  0  0  0  0  0  0  0  0  0  0
    6.3325  -38.1367   11.6410 C   0  0  0  0  0  0  0  0  0  0  0  0
    7.2557  -37.3080   10.9806 C   0  0  0  0  0  0  0  0  0  0  0  0
    6.6121  -36.1345    9.7918 S   0  0  0  0  0  0  0  0  0  0  0  0
    7.1924  -34.8498   10.1281 O   0  0  0  0  0  0  0  0  0  0  0  0
    5.1710  -36.2876    9.7538 O   0  0  0  0  0  0  0  0  0  0  0  0
    7.2288  -36.6838    8.3012 N   0  0  0  0  0  0  0  0  0  0  0  0
    6.7465  -38.0239    7.8887 C   0  0  0  0  0  0  0  0  0  0  0  0
    7.2583  -35.7188    7.1499 C   0  0  0  0  0  0  0  0  0  0  0  0
    5.9765  -34.9044    7.0031 C   0  0  0  0  0  0  0  0  0  0  0  0
    8.4938  -34.8275    7.2389 C   0  0  0  0  0  0  0  0  0  0  0  0
  1  2  1  0
  2  3  2  0
  3  4  1  0
  4  5  2  0
  5  6  1  0
  6  7  2  0
  7  8  1  0
  8  9  2  0
  8 10  2  0
  8 11  1  0
 11 12  1  0
 11 13  1  0
 13 14  1  0
 13 15  1  0
  7  2  1  0
M  END
>  <inchikey>  (105) 
WBKZQBTWNIAIOF-UHFFFAOYSA-N

>  <tags>  (105) 
fragmenstein_placed,CpKRS_FrAncestor_bulkdock_iter2

>  <ref_pdb>  (105) 
x0540b

>  <energy_score>  (105) 
-56.084359

>  <distance_score>  (105) 
0.206861

>  <HIPPO Pose ID>  (105) 
52981

>  <ref_mols>  (105) 
x0639c

>  <smiles>  (105) 
Cc1ccccc1S(=O)(=O)N(C)C(C)C

>  <HIPPO Compound ID>  (105) 
311504

>  <alias>  (105) 
WBKZQBTWNIAIOF-UHFFFAOYSA-N-P54

>  <subsites>  (105) 


>  <placement_batch>  (105) 
CpKRS_FrAncestor_bulkdock_iter2

>  <name>  (105) 
WBKZQBTWNIAIOF-UHFFFAOYSA-N-P54

$$$$
TUSMOUOLRHOQAU-UHFFFAOYSA-N-P54
     RDKit          3D

 14 14  0  0  0  0  0  0  0  0999 V2000
    9.6371  -36.4346   10.7067 C   0  0  0  0  0  0  0  0  0  0  0  0
    8.6232  -37.3303   11.3611 C   0  0  0  0  0  0  0  0  0  0  0  0
    9.0531  -38.1596   12.4103 C   0  0  0  0  0  0  0  0  0  0  0  0
    8.1568  -38.9824   13.0947 C   0  0  0  0  0  0  0  0  0  0  0  0
    6.8110  -38.9948   12.7466 C   0  0  0  0  0  0  0  0  0  0  0  0
    6.3560  -38.1727   11.7193 C   0  0  0  0  0  0  0  0  0  0  0  0
    7.2536  -37.3411   11.0283 C   0  0  0  0  0  0  0  0  0  0  0  0
    6.5678  -36.2026    9.8387 S   0  0  0  0  0  0  0  0  0  0  0  0
    5.1260  -36.3067    9.8832 O   0  0  0  0  0  0  0  0  0  0  0  0
    7.2011  -34.9192   10.0696 O   0  0  0  0  0  0  0  0  0  0  0  0
    7.1108  -36.7542    8.3668 N   0  0  0  0  0  0  0  0  0  0  0  0
    6.7914  -38.0360    7.7295 C   0  0  0  0  0  0  0  0  0  0  0  0
    5.3637  -38.5109    7.9456 C   0  0  0  0  0  0  0  0  0  0  0  0
    7.8110  -39.0963    8.1245 C   0  0  0  0  0  0  0  0  0  0  0  0
  1  2  1  0
  2  3  2  0
  3  4  1  0
  4  5  2  0
  5  6  1  0
  6  7  2  0
  7  8  1  0
  8  9  2  0
  8 10  2  0
  8 11  1  0
 11 12  1  0
 12 13  1  0
 12 14  1  0
  7  2  1  0
M  END
>  <inchikey>  (106) 
TUSMOUOLRHOQAU-UHFFFAOYSA-N

>  <tags>  (106) 
fragmenstein_placed,CpKRS_FrAncestor_bulkdock_iter2

>  <ref_pdb>  (106) 
x0540b

>  <energy_score>  (106) 
-20.674936

>  <distance_score>  (106) 
0.20794

>  <HIPPO Pose ID>  (106) 
52984

>  <ref_mols>  (106) 
x0639c

>  <smiles>  (106) 
Cc1ccccc1S(=O)(=O)NC(C)C

>  <HIPPO Compound ID>  (106) 
447551

>  <alias>  (106) 
TUSMOUOLRHOQAU-UHFFFAOYSA-N-P54

>  <subsites>  (106) 


>  <placement_batch>  (106) 
CpKRS_FrAncestor_bulkdock_iter2

>  <name>  (106) 
TUSMOUOLRHOQAU-UHFFFAOYSA-N-P54

$$$$
LBLYYCQCTBFVLH-UHFFFAOYSA-N-P52
     RDKit          3D

 11 11  0  0  0  0  0  0  0  0999 V2000
   21.1992   10.2516   23.2423 C   0  0  0  0  0  0  0  0  0  0  0  0
   22.6274    9.9711   23.5989 C   0  0  0  0  0  0  0  0  0  0  0  0
   23.6484   10.6567   22.9215 C   0  0  0  0  0  0  0  0  0  0  0  0
   24.9937   10.4310   23.2146 C   0  0  0  0  0  0  0  0  0  0  0  0
   25.3479    9.4980   24.1808 C   0  0  0  0  0  0  0  0  0  0  0  0
   24.3537    8.8046   24.8672 C   0  0  0  0  0  0  0  0  0  0  0  0
   22.9985    9.0530   24.5958 C   0  0  0  0  0  0  0  0  0  0  0  0
   21.7791    8.2187   25.5978 S   0  0  0  0  0  0  0  0  0  0  0  0
   22.4858    7.3202   26.4860 O   0  0  0  0  0  0  0  0  0  0  0  0
   20.8885    9.2277   26.1313 O   0  0  0  0  0  0  0  0  0  0  0  0
   20.9180    7.3242   24.5697 O   0  0  0  0  0  0  0  0  0  0  0  0
  1  2  1  0
  2  3  2  0
  3  4  1  0
  4  5  2  0
  5  6  1  0
  6  7  2  0
  7  8  1  0
  8  9  2  0
  8 10  2  0
  8 11  1  0
  7  2  1  0
M  END
>  <inchikey>  (107) 
LBLYYCQCTBFVLH-UHFFFAOYSA-N

>  <tags>  (107) 
fragmenstein_placed,CpKRS_FrAncestor_bulkdock_iter2

>  <ref_pdb>  (107) 
x0540b

>  <energy_score>  (107) 
-21.838636

>  <distance_score>  (107) 
0.325858

>  <HIPPO Pose ID>  (107) 
52988

>  <ref_mols>  (107) 
x0639a

>  <smiles>  (107) 
Cc1ccccc1S(=O)(=O)O

>  <HIPPO Compound ID>  (107) 
447552

>  <alias>  (107) 
LBLYYCQCTBFVLH-UHFFFAOYSA-N-P52

>  <subsites>  (107) 


>  <placement_batch>  (107) 
CpKRS_FrAncestor_bulkdock_iter2

>  <name>  (107) 
LBLYYCQCTBFVLH-UHFFFAOYSA-N-P52

$$$$
ZOPDMEVVIGHKCB-UHFFFAOYSA-N-P38
     RDKit          3D

 18 18  0  0  0  0  0  0  0  0999 V2000
    3.4548  -15.9550   28.1129 C   0  0  0  0  0  0  0  0  0  0  0  0
    2.9926  -14.9293   27.1219 C   0  0  0  0  0  0  0  0  0  0  0  0
    1.6477  -14.5508   27.0850 C   0  0  0  0  0  0  0  0  0  0  0  0
    1.1669  -13.6601   26.1126 C   0  0  0  0  0  0  0  0  0  0  0  0
   -0.3133  -13.4259   25.9999 C   0  0  0  0  0  0  0  0  0  0  0  0
    2.0604  -13.0941   25.1791 C   0  0  0  0  0  0  0  0  0  0  0  0
    1.5286  -12.1706   24.1180 C   0  0  0  0  0  0  0  0  0  0  0  0
    3.4231  -13.4573   25.2379 C   0  0  0  0  0  0  0  0  0  0  0  0
    4.4313  -12.9356   24.2621 C   0  0  0  0  0  0  0  0  0  0  0  0
    4.9404  -13.6705   23.5308 O   0  0  0  0  0  0  0  0  0  0  0  0
    4.5468  -11.4283   24.3804 N   0  0  0  0  0  0  0  0  0  0  0  0
    5.3881  -10.5017   23.6842 C   0  0  0  0  0  0  0  0  0  0  0  0
    4.7587   -9.1401   23.4089 C   0  0  0  0  0  0  0  0  0  0  0  0
    3.2262   -9.1813   23.3605 C   0  0  0  0  0  0  0  0  0  0  0  0
    5.2256   -8.1522   24.4802 C   0  0  0  0  0  0  0  0  0  0  0  0
    5.2385   -8.6944   22.1020 C   0  0  0  0  0  0  0  0  0  0  0  0
    5.5723   -8.3311   21.0593 N   0  0  0  0  0  0  0  0  0  0  0  0
    3.8718  -14.3958   26.1762 C   0  0  0  0  0  0  0  0  0  0  0  0
  1  2  1  0
  2  3  2  0
  3  4  1  0
  4  5  1  0
  4  6  2  0
  6  7  1  0
  6  8  1  0
  8  9  1  0
  9 10  2  0
  9 11  1  0
 11 12  1  0
 12 13  1  0
 13 14  1  0
 13 15  1  0
 13 16  1  0
 16 17  3  0
  8 18  2  0
 18  2  1  0
M  END
>  <inchikey>  (108) 
ZOPDMEVVIGHKCB-UHFFFAOYSA-N

>  <tags>  (108) 
fragmenstein_placed,CpKRS_FrAncestor_bulkdock_iter2

>  <ref_pdb>  (108) 
x0540b

>  <energy_score>  (108) 
-7.940352

>  <distance_score>  (108) 
0.689438

>  <HIPPO Pose ID>  (108) 
52992

>  <ref_mols>  (108) 
x0555a

>  <smiles>  (108) 
Cc1cc(C)c(C)c(C(=O)NCC(C)(C)C#N)c1

>  <HIPPO Compound ID>  (108) 
447553

>  <alias>  (108) 
ZOPDMEVVIGHKCB-UHFFFAOYSA-N-P38

>  <subsites>  (108) 


>  <placement_batch>  (108) 
CpKRS_FrAncestor_bulkdock_iter2

>  <name>  (108) 
ZOPDMEVVIGHKCB-UHFFFAOYSA-N-P38

$$$$
NBXAGAWRTRVBQM-UHFFFAOYSA-N-P59
     RDKit          3D

 17 18  0  0  0  0  0  0  0  0999 V2000
    7.0109  -20.4774   20.6753 C   0  0  0  0  0  0  0  0  0  0  0  0
    5.6682  -21.0654   20.9187 C   0  0  0  0  0  0  0  0  0  0  0  0
    4.7492  -20.3089   21.6372 C   0  0  0  0  0  0  0  0  0  0  0  0
    3.5765  -20.8718   22.1242 C   0  0  0  0  0  0  0  0  0  0  0  0
    2.7044  -20.0491   23.0200 C   0  0  0  0  0  0  0  0  0  0  0  0
    3.2775  -22.1960   21.7935 C   0  0  0  0  0  0  0  0  0  0  0  0
    4.1717  -22.9653   21.0313 C   0  0  0  0  0  0  0  0  0  0  0  0
    3.8735  -24.4194   20.7708 C   0  0  0  0  0  0  0  0  0  0  0  0
    2.8746  -24.6647   19.7362 N   0  0  0  0  0  0  0  0  0  0  0  0
    3.0247  -23.9750   18.4426 C   0  0  1  0  0  0  0  0  0  0  0  0
    4.4025  -24.0509   17.7770 C   0  0  0  0  0  0  0  0  0  0  0  0
    1.9505  -24.4767   17.4544 C   0  0  0  0  0  0  0  0  0  0  0  0
    2.0257  -25.8836   17.1722 O   0  0  0  0  0  0  0  0  0  0  0  0
    2.6300  -26.6514   18.2174 C   0  0  0  0  0  0  0  0  0  0  0  0
    2.4890  -26.0817   19.6392 C   0  0  2  0  0  0  0  0  0  0  0  0
    1.0562  -26.2328   20.1586 C   0  0  0  0  0  0  0  0  0  0  0  0
    5.3702  -22.3847   20.5916 C   0  0  0  0  0  0  0  0  0  0  0  0
  1  2  1  0
  2  3  2  0
  3  4  1  0
  4  5  1  0
  4  6  2  0
  6  7  1  0
  7  8  1  0
  8  9  1  0
  9 10  1  0
 10 11  1  6
 10 12  1  0
 12 13  1  0
 13 14  1  0
 14 15  1  0
 15 16  1  6
  7 17  2  0
 17  2  1  0
 15  9  1  0
M  END
>  <inchikey>  (109) 
NBXAGAWRTRVBQM-UHFFFAOYSA-N

>  <tags>  (109) 
fragmenstein_placed,CpKRS_FrAncestor_bulkdock_iter2

>  <ref_pdb>  (109) 
x0540b

>  <energy_score>  (109) 
-30.898487

>  <distance_score>  (109) 
0.53545

>  <HIPPO Pose ID>  (109) 
52993

>  <ref_mols>  (109) 
x0675a

>  <smiles>  (109) 
Cc1cc(C)cc(CN2C(C)COCC2C)c1

>  <HIPPO Compound ID>  (109) 
447554

>  <alias>  (109) 
NBXAGAWRTRVBQM-UHFFFAOYSA-N-P59

>  <subsites>  (109) 


>  <placement_batch>  (109) 
CpKRS_FrAncestor_bulkdock_iter2

>  <name>  (109) 
NBXAGAWRTRVBQM-UHFFFAOYSA-N-P59

$$$$
KYABNDGHMJVNFW-UHFFFAOYSA-N-P60
     RDKit          3D

 17 18  0  0  0  0  0  0  0  0999 V2000
   -0.7178  -23.6968   23.0888 C   0  0  0  0  0  0  0  0  0  0  0  0
   -1.3107  -24.8115   23.8954 C   0  0  0  0  0  0  0  0  0  0  0  0
   -2.0032  -24.5608   25.0857 C   0  0  0  0  0  0  0  0  0  0  0  0
   -2.6777  -25.5919   25.7499 C   0  0  0  0  0  0  0  0  0  0  0  0
   -3.4128  -25.3198   27.0263 C   0  0  0  0  0  0  0  0  0  0  0  0
   -2.6423  -26.8844   25.2142 C   0  0  0  0  0  0  0  0  0  0  0  0
   -1.9419  -27.1549   24.0295 C   0  0  0  0  0  0  0  0  0  0  0  0
   -1.9607  -28.5310   23.4059 C   0  0  0  0  0  0  0  0  0  0  0  0
   -0.7790  -29.3479   23.7149 N   0  0  0  0  0  0  0  0  0  0  0  0
   -0.7531  -29.8153   25.1133 C   0  0  0  0  0  0  0  0  0  0  0  0
   -1.5348  -31.1276   25.3283 C   0  0  2  0  0  0  0  0  0  0  0  0
   -1.4596  -31.5781   26.7815 C   0  0  0  0  0  0  0  0  0  0  0  0
   -1.0579  -32.2133   24.5153 O   0  0  0  0  0  0  0  0  0  0  0  0
   -0.1924  -31.7917   23.4460 C   0  0  1  0  0  0  0  0  0  0  0  0
   -0.1143  -32.9342   22.4413 C   0  0  0  0  0  0  0  0  0  0  0  0
   -0.7185  -30.5022   22.7840 C   0  0  0  0  0  0  0  0  0  0  0  0
   -1.2599  -26.1139   23.3914 C   0  0  0  0  0  0  0  0  0  0  0  0
  1  2  1  0
  2  3  2  0
  3  4  1  0
  4  5  1  0
  4  6  2  0
  6  7  1  0
  7  8  1  0
  8  9  1  0
  9 10  1  0
 10 11  1  0
 11 12  1  1
 11 13  1  0
 13 14  1  0
 14 15  1  6
 14 16  1  0
  7 17  2  0
 17  2  1  0
 16  9  1  0
M  END
>  <inchikey>  (110) 
KYABNDGHMJVNFW-UHFFFAOYSA-N

>  <tags>  (110) 
fragmenstein_placed,CpKRS_FrAncestor_bulkdock_iter2

>  <ref_pdb>  (110) 
x0540b

>  <energy_score>  (110) 
-36.849396

>  <distance_score>  (110) 
0.503366

>  <HIPPO Pose ID>  (110) 
52996

>  <ref_mols>  (110) 
x0675b

>  <smiles>  (110) 
Cc1cc(C)cc(CN2CC(C)OC(C)C2)c1

>  <HIPPO Compound ID>  (110) 
447555

>  <alias>  (110) 
KYABNDGHMJVNFW-UHFFFAOYSA-N-P60

>  <subsites>  (110) 


>  <placement_batch>  (110) 
CpKRS_FrAncestor_bulkdock_iter2

>  <name>  (110) 
KYABNDGHMJVNFW-UHFFFAOYSA-N-P60

$$$$
YMJYFFJNXDVMDF-UHFFFAOYSA-N-P59
     RDKit          3D

 16 17  0  0  0  0  0  0  0  0999 V2000
    2.6106  -19.8495   23.0204 C   0  0  0  0  0  0  0  0  0  0  0  0
    3.4977  -20.6513   22.1104 C   0  0  0  0  0  0  0  0  0  0  0  0
    4.6014  -19.9708   21.5858 C   0  0  0  0  0  0  0  0  0  0  0  0
    5.5824  -20.6128   20.8699 C   0  0  0  0  0  0  0  0  0  0  0  0
    5.4610  -21.9728   20.6277 C   0  0  0  0  0  0  0  0  0  0  0  0
    6.6751  -22.6368   20.0858 C   0  0  0  0  0  0  0  0  0  0  0  0
    4.2826  -22.6714   20.9959 C   0  0  0  0  0  0  0  0  0  0  0  0
    4.0938  -24.1440   20.6715 C   0  0  0  0  0  0  0  0  0  0  0  0
    3.0734  -24.3882   19.6515 N   0  0  0  0  0  0  0  0  0  0  0  0
    3.4654  -23.9206   18.3115 C   0  0  0  0  0  0  0  0  0  0  0  0
    2.5589  -24.5354   17.2384 C   0  0  0  0  0  0  0  0  0  0  0  0
    2.7093  -25.9625   17.1522 O   0  0  0  0  0  0  0  0  0  0  0  0
    3.0385  -26.5675   18.4111 C   0  0  0  0  0  0  0  0  0  0  0  0
    2.5762  -25.7715   19.6351 C   0  0  0  0  0  0  0  0  0  0  0  0
    3.2746  -21.9894   21.7293 C   0  0  0  0  0  0  0  0  0  0  0  0
    1.9382  -22.6663   21.9407 C   0  0  0  0  0  0  0  0  0  0  0  0
  1  2  1  0
  2  3  2  0
  3  4  1  0
  4  5  2  0
  5  6  1  0
  5  7  1  0
  7  8  1  0
  8  9  1  0
  9 10  1  0
 10 11  1  0
 11 12  1  0
 12 13  1  0
 13 14  1  0
  7 15  2  0
 15 16  1  0
 15  2  1  0
 14  9  1  0
M  END
>  <inchikey>  (111) 
YMJYFFJNXDVMDF-UHFFFAOYSA-N

>  <tags>  (111) 
fragmenstein_placed,CpKRS_FrAncestor_bulkdock_iter2

>  <ref_pdb>  (111) 
x0540b

>  <energy_score>  (111) 
-29.142538

>  <distance_score>  (111) 
0.409742

>  <HIPPO Pose ID>  (111) 
53001

>  <ref_mols>  (111) 
x0675a

>  <smiles>  (111) 
Cc1ccc(C)c(CN2CCOCC2)c1C

>  <HIPPO Compound ID>  (111) 
142121

>  <alias>  (111) 
YMJYFFJNXDVMDF-UHFFFAOYSA-N-P59

>  <subsites>  (111) 


>  <placement_batch>  (111) 
CpKRS_FrAncestor_bulkdock_iter2

>  <name>  (111) 
YMJYFFJNXDVMDF-UHFFFAOYSA-N-P59

$$$$
HZZFQJIUMMAXND-UHFFFAOYSA-N-P60
     RDKit          3D

 15 16  0  0  0  0  0  0  0  0999 V2000
   -3.6565  -25.3455   27.0608 C   0  0  0  0  0  0  0  0  0  0  0  0
   -2.7918  -25.5661   25.8577 C   0  0  0  0  0  0  0  0  0  0  0  0
   -1.9851  -24.5393   25.3679 C   0  0  0  0  0  0  0  0  0  0  0  0
   -1.1686  -24.7549   24.2596 C   0  0  0  0  0  0  0  0  0  0  0  0
   -1.1327  -26.0034   23.6417 C   0  0  0  0  0  0  0  0  0  0  0  0
   -1.9482  -27.0486   24.0988 C   0  0  0  0  0  0  0  0  0  0  0  0
   -1.9475  -28.3801   23.3463 C   0  0  2  0  0  0  0  0  0  0  0  0
   -3.3672  -28.9653   23.2138 C   0  0  0  0  0  0  0  0  0  0  0  0
   -0.9228  -29.3053   23.8664 N   0  0  0  0  0  0  0  0  0  0  0  0
   -1.1922  -29.9108   25.1779 C   0  0  0  0  0  0  0  0  0  0  0  0
   -1.7579  -31.3353   25.0997 C   0  0  0  0  0  0  0  0  0  0  0  0
   -0.9314  -32.2500   24.3717 O   0  0  0  0  0  0  0  0  0  0  0  0
    0.0276  -31.6001   23.5261 C   0  0  0  0  0  0  0  0  0  0  0  0
   -0.5377  -30.3305   22.8725 C   0  0  0  0  0  0  0  0  0  0  0  0
   -2.7618  -26.8138   25.2224 C   0  0  0  0  0  0  0  0  0  0  0  0
  1  2  1  0
  2  3  2  0
  3  4  1  0
  4  5  2  0
  5  6  1  0
  6  7  1  0
  7  8  1  1
  7  9  1  0
  9 10  1  0
 10 11  1  0
 11 12  1  0
 12 13  1  0
 13 14  1  0
  6 15  2  0
 15  2  1  0
 14  9  1  0
M  END
>  <inchikey>  (112) 
HZZFQJIUMMAXND-UHFFFAOYSA-N

>  <tags>  (112) 
fragmenstein_placed,CpKRS_FrAncestor_bulkdock_iter2

>  <ref_pdb>  (112) 
x0540b

>  <energy_score>  (112) 
-12.440975

>  <distance_score>  (112) 
0.50481

>  <HIPPO Pose ID>  (112) 
53004

>  <ref_mols>  (112) 
x0675b

>  <smiles>  (112) 
Cc1cccc(C(C)N2CCOCC2)c1

>  <HIPPO Compound ID>  (112) 
322703

>  <alias>  (112) 
HZZFQJIUMMAXND-UHFFFAOYSA-N-P60

>  <subsites>  (112) 


>  <placement_batch>  (112) 
CpKRS_FrAncestor_bulkdock_iter2

>  <name>  (112) 
HZZFQJIUMMAXND-UHFFFAOYSA-N-P60

$$$$
KVNDJNNBCGBVBR-UHFFFAOYSA-N-P60
     RDKit          3D

 15 16  0  0  0  0  0  0  0  0999 V2000
   -3.7274  -25.4566   27.0669 C   0  0  0  0  0  0  0  0  0  0  0  0
   -2.8319  -25.6219   25.8778 C   0  0  0  0  0  0  0  0  0  0  0  0
   -2.0399  -24.5629   25.4411 C   0  0  0  0  0  0  0  0  0  0  0  0
   -1.1868  -24.7244   24.3493 C   0  0  0  0  0  0  0  0  0  0  0  0
   -1.0730  -25.9551   23.6887 C   0  0  0  0  0  0  0  0  0  0  0  0
   -0.1168  -26.0777   22.5339 C   0  0  0  0  0  0  0  0  0  0  0  0
   -1.8857  -27.0274   24.1038 C   0  0  0  0  0  0  0  0  0  0  0  0
   -1.8859  -28.3645   23.3856 C   0  0  0  0  0  0  0  0  0  0  0  0
   -0.7728  -29.2548   23.7517 N   0  0  0  0  0  0  0  0  0  0  0  0
   -0.8622  -29.7640   25.1322 C   0  0  0  0  0  0  0  0  0  0  0  0
   -1.6954  -31.0473   25.2520 C   0  0  0  0  0  0  0  0  0  0  0  0
   -1.2037  -32.1312   24.4525 O   0  0  0  0  0  0  0  0  0  0  0  0
   -0.2805  -31.7089   23.4380 C   0  0  0  0  0  0  0  0  0  0  0  0
   -0.7096  -30.3841   22.7906 C   0  0  0  0  0  0  0  0  0  0  0  0
   -2.7511  -26.8448   25.2028 C   0  0  0  0  0  0  0  0  0  0  0  0
  1  2  1  0
  2  3  2  0
  3  4  1  0
  4  5  2  0
  5  6  1  0
  5  7  1  0
  7  8  1  0
  8  9  1  0
  9 10  1  0
 10 11  1  0
 11 12  1  0
 12 13  1  0
 13 14  1  0
  7 15  2  0
 15  2  1  0
 14  9  1  0
M  END
>  <inchikey>  (113) 
KVNDJNNBCGBVBR-UHFFFAOYSA-N

>  <tags>  (113) 
fragmenstein_placed,CpKRS_FrAncestor_bulkdock_iter2

>  <ref_pdb>  (113) 
x0540b

>  <energy_score>  (113) 
-22.356816

>  <distance_score>  (113) 
0.393605

>  <HIPPO Pose ID>  (113) 
53006

>  <ref_mols>  (113) 
x0675b

>  <smiles>  (113) 
Cc1ccc(C)c(CN2CCOCC2)c1

>  <HIPPO Compound ID>  (113) 
324400

>  <alias>  (113) 
KVNDJNNBCGBVBR-UHFFFAOYSA-N-P60

>  <subsites>  (113) 


>  <placement_batch>  (113) 
CpKRS_FrAncestor_bulkdock_iter2

>  <name>  (113) 
KVNDJNNBCGBVBR-UHFFFAOYSA-N-P60

$$$$
PRMNXQOPWXJFHJ-UHFFFAOYSA-N-P60
     RDKit          3D

 15 16  0  0  0  0  0  0  0  0999 V2000
   -0.6968  -23.7172   23.0612 C   0  0  0  0  0  0  0  0  0  0  0  0
   -1.2969  -24.8272   23.8683 C   0  0  0  0  0  0  0  0  0  0  0  0
   -1.9712  -24.5735   25.0683 C   0  0  0  0  0  0  0  0  0  0  0  0
   -2.6421  -25.6007   25.7417 C   0  0  0  0  0  0  0  0  0  0  0  0
   -3.3455  -25.3256   27.0356 C   0  0  0  0  0  0  0  0  0  0  0  0
   -2.6239  -26.8923   25.2040 C   0  0  0  0  0  0  0  0  0  0  0  0
   -1.9409  -27.1666   24.0098 C   0  0  0  0  0  0  0  0  0  0  0  0
   -1.9691  -28.5452   23.3929 C   0  0  0  0  0  0  0  0  0  0  0  0
   -0.7836  -29.3634   23.6867 N   0  0  0  0  0  0  0  0  0  0  0  0
   -0.7565  -30.5372   22.7805 C   0  0  0  0  0  0  0  0  0  0  0  0
   -0.2764  -31.8261   23.4623 C   0  0  0  0  0  0  0  0  0  0  0  0
   -1.1339  -32.1980   24.5507 O   0  0  0  0  0  0  0  0  0  0  0  0
   -1.5251  -31.0829   25.3634 C   0  0  0  0  0  0  0  0  0  0  0  0
   -0.7237  -29.8014   25.0928 C   0  0  0  0  0  0  0  0  0  0  0  0
   -1.2623  -26.1293   23.3623 C   0  0  0  0  0  0  0  0  0  0  0  0
  1  2  1  0
  2  3  2  0
  3  4  1  0
  4  5  1  0
  4  6  2  0
  6  7  1  0
  7  8  1  0
  8  9  1  0
  9 10  1  0
 10 11  1  0
 11 12  1  0
 12 13  1  0
 13 14  1  0
  7 15  2  0
 15  2  1  0
 14  9  1  0
M  END
>  <inchikey>  (114) 
PRMNXQOPWXJFHJ-UHFFFAOYSA-N

>  <tags>  (114) 
fragmenstein_placed,CpKRS_FrAncestor_bulkdock_iter2

>  <ref_pdb>  (114) 
x0540b

>  <energy_score>  (114) 
-20.193624

>  <distance_score>  (114) 
0.496255

>  <HIPPO Pose ID>  (114) 
53008

>  <ref_mols>  (114) 
x0675b

>  <smiles>  (114) 
Cc1cc(C)cc(CN2CCOCC2)c1

>  <HIPPO Compound ID>  (114) 
324416

>  <alias>  (114) 
PRMNXQOPWXJFHJ-UHFFFAOYSA-N-P60

>  <subsites>  (114) 


>  <placement_batch>  (114) 
CpKRS_FrAncestor_bulkdock_iter2

>  <name>  (114) 
PRMNXQOPWXJFHJ-UHFFFAOYSA-N-P60

$$$$
SBCKTLFWUBRVHM-UHFFFAOYSA-N-P60
     RDKit          3D

 16 17  0  0  0  0  0  0  0  0999 V2000
   -3.6514  -25.3827   27.0640 C   0  0  0  0  0  0  0  0  0  0  0  0
   -2.7895  -25.5952   25.8572 C   0  0  0  0  0  0  0  0  0  0  0  0
   -1.9929  -24.5599   25.3674 C   0  0  0  0  0  0  0  0  0  0  0  0
   -1.1733  -24.7678   24.2604 C   0  0  0  0  0  0  0  0  0  0  0  0
   -1.1254  -26.0161   23.6431 C   0  0  0  0  0  0  0  0  0  0  0  0
   -1.9298  -27.0704   24.1000 C   0  0  0  0  0  0  0  0  0  0  0  0
   -1.8962  -28.4071   23.3571 C   0  0  2  0  0  0  0  0  0  0  0  0
   -3.2862  -29.0629   23.2631 C   0  0  0  0  0  0  0  0  0  0  0  0
   -0.8110  -29.2780   23.8481 N   0  0  0  0  0  0  0  0  0  0  0  0
   -0.9939  -29.8566   25.1822 C   0  0  0  0  0  0  0  0  0  0  0  0
   -1.6742  -31.2352   25.2232 C   0  0  0  0  0  0  0  0  0  0  0  0
   -1.2525  -32.1482   24.2047 O   0  0  0  0  0  0  0  0  0  0  0  0
   -0.1076  -31.6784   23.4874 C   0  0  0  0  0  0  0  0  0  0  0  0
   -0.3882  -30.2961   22.8570 C   0  0  2  0  0  0  0  0  0  0  0  0
    0.8579  -29.7891   22.1297 C   0  0  0  0  0  0  0  0  0  0  0  0
   -2.7458  -26.8442   25.2235 C   0  0  0  0  0  0  0  0  0  0  0  0
  1  2  1  0
  2  3  2  0
  3  4  1  0
  4  5  2  0
  5  6  1  0
  6  7  1  0
  7  8  1  1
  7  9  1  0
  9 10  1  0
 10 11  1  0
 11 12  1  0
 12 13  1  0
 13 14  1  0
 14 15  1  1
  6 16  2  0
 16  2  1  0
 14  9  1  0
M  END
>  <inchikey>  (115) 
SBCKTLFWUBRVHM-UHFFFAOYSA-N

>  <tags>  (115) 
fragmenstein_placed,CpKRS_FrAncestor_bulkdock_iter2

>  <ref_pdb>  (115) 
x0540b

>  <energy_score>  (115) 
-30.063511

>  <distance_score>  (115) 
0.424874

>  <HIPPO Pose ID>  (115) 
53010

>  <ref_mols>  (115) 
x0675b

>  <smiles>  (115) 
Cc1cccc(C(C)N2CCOCC2C)c1

>  <HIPPO Compound ID>  (115) 
139790

>  <alias>  (115) 
SBCKTLFWUBRVHM-UHFFFAOYSA-N-P60

>  <subsites>  (115) 


>  <placement_batch>  (115) 
CpKRS_FrAncestor_bulkdock_iter2

>  <name>  (115) 
SBCKTLFWUBRVHM-UHFFFAOYSA-N-P60

$$$$
WLRQAQBQEMKGDR-UHFFFAOYSA-N-P60
     RDKit          3D

 16 17  0  0  0  0  0  0  0  0999 V2000
   -3.6473  -25.5009   27.0565 C   0  0  0  0  0  0  0  0  0  0  0  0
   -2.7883  -25.6533   25.8386 C   0  0  0  0  0  0  0  0  0  0  0  0
   -2.0103  -24.5877   25.3921 C   0  0  0  0  0  0  0  0  0  0  0  0
   -1.1787  -24.7374   24.2823 C   0  0  0  0  0  0  0  0  0  0  0  0
   -1.0758  -25.9626   23.6099 C   0  0  0  0  0  0  0  0  0  0  0  0
   -0.1272  -26.0804   22.4486 C   0  0  0  0  0  0  0  0  0  0  0  0
   -1.8699  -27.0440   24.0388 C   0  0  0  0  0  0  0  0  0  0  0  0
   -1.8554  -28.3874   23.3311 C   0  0  0  0  0  0  0  0  0  0  0  0
   -0.6918  -29.2322   23.6532 N   0  0  0  0  0  0  0  0  0  0  0  0
   -0.6898  -29.6869   25.0541 C   0  0  0  0  0  0  0  0  0  0  0  0
   -1.5948  -30.9015   25.3104 C   0  0  0  0  0  0  0  0  0  0  0  0
   -1.3599  -32.0115   24.4341 O   0  0  0  0  0  0  0  0  0  0  0  0
   -0.3603  -31.7378   23.4447 C   0  0  0  0  0  0  0  0  0  0  0  0
   -0.6309  -30.3957   22.7279 C   0  0  2  0  0  0  0  0  0  0  0  0
    0.4484  -30.1289   21.6793 C   0  0  0  0  0  0  0  0  0  0  0  0
   -2.7151  -26.8723   25.1555 C   0  0  0  0  0  0  0  0  0  0  0  0
  1  2  1  0
  2  3  2  0
  3  4  1  0
  4  5  2  0
  5  6  1  0
  5  7  1  0
  7  8  1  0
  8  9  1  0
  9 10  1  0
 10 11  1  0
 11 12  1  0
 12 13  1  0
 13 14  1  0
 14 15  1  6
  7 16  2  0
 16  2  1  0
 14  9  1  0
M  END
>  <inchikey>  (116) 
WLRQAQBQEMKGDR-UHFFFAOYSA-N

>  <tags>  (116) 
fragmenstein_placed,CpKRS_FrAncestor_bulkdock_iter2

>  <ref_pdb>  (116) 
x0540b

>  <energy_score>  (116) 
-37.341269

>  <distance_score>  (116) 
0.354712

>  <HIPPO Pose ID>  (116) 
53012

>  <ref_mols>  (116) 
x0675b

>  <smiles>  (116) 
Cc1ccc(C)c(CN2CCOCC2C)c1

>  <HIPPO Compound ID>  (116) 
139890

>  <alias>  (116) 
WLRQAQBQEMKGDR-UHFFFAOYSA-N-P60

>  <subsites>  (116) 


>  <placement_batch>  (116) 
CpKRS_FrAncestor_bulkdock_iter2

>  <name>  (116) 
WLRQAQBQEMKGDR-UHFFFAOYSA-N-P60

$$$$
ARUBZAQHGDJXSR-UHFFFAOYSA-N-P60
     RDKit          3D

 17 18  0  0  0  0  0  0  0  0999 V2000
   -3.6560  -25.5441   27.0805 C   0  0  0  0  0  0  0  0  0  0  0  0
   -2.7875  -25.6902   25.8685 C   0  0  0  0  0  0  0  0  0  0  0  0
   -2.0151  -24.6176   25.4276 C   0  0  0  0  0  0  0  0  0  0  0  0
   -1.1890  -24.7551   24.3122 C   0  0  0  0  0  0  0  0  0  0  0  0
   -1.0913  -25.9722   23.6242 C   0  0  0  0  0  0  0  0  0  0  0  0
   -0.1521  -26.0744   22.4531 C   0  0  0  0  0  0  0  0  0  0  0  0
   -1.8736  -27.0635   24.0530 C   0  0  0  0  0  0  0  0  0  0  0  0
   -1.8614  -28.4022   23.3257 C   0  0  0  0  0  0  0  0  0  0  0  0
   -0.6349  -29.1893   23.5275 N   0  0  0  0  0  0  0  0  0  0  0  0
   -0.4578  -29.5621   24.9428 C   0  0  0  0  0  0  0  0  0  0  0  0
   -1.4030  -30.6869   25.4048 C   0  0  0  0  0  0  0  0  0  0  0  0
   -1.5714  -31.7368   24.4418 O   0  0  0  0  0  0  0  0  0  0  0  0
   -0.5090  -31.7377   23.4826 C   0  0  0  0  0  0  0  0  0  0  0  0
   -0.4955  -30.4063   22.6589 C   0  0  0  0  0  0  0  0  0  0  0  0
    0.8844  -30.2834   21.9784 C   0  0  0  0  0  0  0  0  0  0  0  0
   -1.5481  -30.5459   21.5333 C   0  0  0  0  0  0  0  0  0  0  0  0
   -2.7100  -26.9060   25.1783 C   0  0  0  0  0  0  0  0  0  0  0  0
  1  2  1  0
  2  3  2  0
  3  4  1  0
  4  5  2  0
  5  6  1  0
  5  7  1  0
  7  8  1  0
  8  9  1  0
  9 10  1  0
 10 11  1  0
 11 12  1  0
 12 13  1  0
 13 14  1  0
 14 15  1  0
 14 16  1  0
  7 17  2  0
 17  2  1  0
 14  9  1  0
M  END
>  <inchikey>  (117) 
ARUBZAQHGDJXSR-UHFFFAOYSA-N

>  <tags>  (117) 
fragmenstein_placed,CpKRS_FrAncestor_bulkdock_iter2

>  <ref_pdb>  (117) 
x0540b

>  <energy_score>  (117) 
-35.617374

>  <distance_score>  (117) 
0.357532

>  <HIPPO Pose ID>  (117) 
53016

>  <ref_mols>  (117) 
x0675b

>  <smiles>  (117) 
Cc1ccc(C)c(CN2CCOCC2(C)C)c1

>  <HIPPO Compound ID>  (117) 
447556

>  <alias>  (117) 
ARUBZAQHGDJXSR-UHFFFAOYSA-N-P60

>  <subsites>  (117) 


>  <placement_batch>  (117) 
CpKRS_FrAncestor_bulkdock_iter2

>  <name>  (117) 
ARUBZAQHGDJXSR-UHFFFAOYSA-N-P60

$$$$
PMRVIRSYEAPVIV-UHFFFAOYSA-N-P60
     RDKit          3D

 17 18  0  0  0  0  0  0  0  0999 V2000
   -0.7492  -23.7283   23.0816 C   0  0  0  0  0  0  0  0  0  0  0  0
   -1.3216  -24.8592   23.8800 C   0  0  0  0  0  0  0  0  0  0  0  0
   -1.9721  -24.6350   25.0985 C   0  0  0  0  0  0  0  0  0  0  0  0
   -2.6098  -25.6839   25.7723 C   0  0  0  0  0  0  0  0  0  0  0  0
   -3.2906  -25.4335   27.0839 C   0  0  0  0  0  0  0  0  0  0  0  0
   -2.5784  -26.9700   25.2191 C   0  0  0  0  0  0  0  0  0  0  0  0
   -1.9210  -27.2139   24.0044 C   0  0  0  0  0  0  0  0  0  0  0  0
   -1.9223  -28.5919   23.3716 C   0  0  0  0  0  0  0  0  0  0  0  0
   -0.6317  -29.2934   23.4682 N   0  0  0  0  0  0  0  0  0  0  0  0
   -0.2945  -29.5798   24.8775 C   0  0  0  0  0  0  0  0  0  0  0  0
   -1.1848  -30.6692   25.5093 C   0  0  0  0  0  0  0  0  0  0  0  0
   -1.5218  -31.7325   24.6046 O   0  0  0  0  0  0  0  0  0  0  0  0
   -0.5463  -31.8448   23.5630 C   0  0  0  0  0  0  0  0  0  0  0  0
   -0.5305  -30.5603   22.6675 C   0  0  0  0  0  0  0  0  0  0  0  0
    0.8337  -30.5020   21.9445 C   0  0  0  0  0  0  0  0  0  0  0  0
   -1.6090  -30.7369   21.5722 C   0  0  0  0  0  0  0  0  0  0  0  0
   -1.2803  -26.1531   23.3534 C   0  0  0  0  0  0  0  0  0  0  0  0
  1  2  1  0
  2  3  2  0
  3  4  1  0
  4  5  1  0
  4  6  2  0
  6  7  1  0
  7  8  1  0
  8  9  1  0
  9 10  1  0
 10 11  1  0
 11 12  1  0
 12 13  1  0
 13 14  1  0
 14 15  1  0
 14 16  1  0
  7 17  2  0
 17  2  1  0
 14  9  1  0
M  END
>  <inchikey>  (118) 
PMRVIRSYEAPVIV-UHFFFAOYSA-N

>  <tags>  (118) 
fragmenstein_placed,CpKRS_FrAncestor_bulkdock_iter2

>  <ref_pdb>  (118) 
x0540b

>  <energy_score>  (118) 
-52.912657

>  <distance_score>  (118) 
0.486894

>  <HIPPO Pose ID>  (118) 
53018

>  <ref_mols>  (118) 
x0675b

>  <smiles>  (118) 
Cc1cc(C)cc(CN2CCOCC2(C)C)c1

>  <HIPPO Compound ID>  (118) 
447557

>  <alias>  (118) 
PMRVIRSYEAPVIV-UHFFFAOYSA-N-P60

>  <subsites>  (118) 


>  <placement_batch>  (118) 
CpKRS_FrAncestor_bulkdock_iter2

>  <name>  (118) 
PMRVIRSYEAPVIV-UHFFFAOYSA-N-P60

$$$$
DVBMUOXXONJWPH-UHFFFAOYSA-N-P59
     RDKit          3D

 17 18  0  0  0  0  0  0  0  0999 V2000
    7.0225  -20.5118   20.6619 C   0  0  0  0  0  0  0  0  0  0  0  0
    5.6768  -21.0934   20.9049 C   0  0  0  0  0  0  0  0  0  0  0  0
    4.7729  -20.3309   21.6399 C   0  0  0  0  0  0  0  0  0  0  0  0
    3.5934  -20.8789   22.1251 C   0  0  0  0  0  0  0  0  0  0  0  0
    2.7263  -20.0492   23.0190 C   0  0  0  0  0  0  0  0  0  0  0  0
    3.2806  -22.1971   21.7893 C   0  0  0  0  0  0  0  0  0  0  0  0
    4.1619  -22.9716   21.0154 C   0  0  0  0  0  0  0  0  0  0  0  0
    3.8300  -24.4146   20.7427 C   0  0  0  0  0  0  0  0  0  0  0  0
    2.8760  -24.5948   19.6486 N   0  0  0  0  0  0  0  0  0  0  0  0
    3.3724  -24.0951   18.3543 C   0  0  0  0  0  0  0  0  0  0  0  0
    2.4690  -24.5544   17.2027 C   0  0  0  0  0  0  0  0  0  0  0  0
    2.3760  -25.9828   17.0788 O   0  0  0  0  0  0  0  0  0  0  0  0
    2.7904  -26.6790   18.2568 C   0  0  0  0  0  0  0  0  0  0  0  0
    2.3933  -25.9984   19.5759 C   0  0  2  0  0  0  0  0  0  0  0  0
    0.8688  -26.0395   19.7629 C   0  0  0  0  0  0  0  0  0  0  0  0
    0.5607  -25.7346   21.0557 F   0  0  0  0  0  0  0  0  0  0  0  0
    5.3587  -22.4038   20.5576 C   0  0  0  0  0  0  0  0  0  0  0  0
  1  2  1  0
  2  3  2  0
  3  4  1  0
  4  5  1  0
  4  6  2  0
  6  7  1  0
  7  8  1  0
  8  9  1  0
  9 10  1  0
 10 11  1  0
 11 12  1  0
 12 13  1  0
 13 14  1  0
 14 15  1  6
 15 16  1  0
  7 17  2  0
 17  2  1  0
 14  9  1  0
M  END
>  <inchikey>  (119) 
DVBMUOXXONJWPH-UHFFFAOYSA-N

>  <tags>  (119) 
fragmenstein_placed,CpKRS_FrAncestor_bulkdock_iter2

>  <ref_pdb>  (119) 
x0540b

>  <energy_score>  (119) 
-25.04605

>  <distance_score>  (119) 
0.47399

>  <HIPPO Pose ID>  (119) 
53019

>  <ref_mols>  (119) 
x0675a

>  <smiles>  (119) 
Cc1cc(C)cc(CN2CCOCC2CF)c1

>  <HIPPO Compound ID>  (119) 
447558

>  <alias>  (119) 
DVBMUOXXONJWPH-UHFFFAOYSA-N-P59

>  <subsites>  (119) 


>  <placement_batch>  (119) 
CpKRS_FrAncestor_bulkdock_iter2

>  <name>  (119) 
DVBMUOXXONJWPH-UHFFFAOYSA-N-P59

$$$$
MHSUVNYJJACEGZ-UHFFFAOYSA-N-P60
     RDKit          3D

 17 18  0  0  0  0  0  0  0  0999 V2000
   -0.6722  -23.7577   23.0467 C   0  0  0  0  0  0  0  0  0  0  0  0
   -1.2433  -24.8914   23.8437 C   0  0  0  0  0  0  0  0  0  0  0  0
   -1.9616  -24.6602   25.0221 C   0  0  0  0  0  0  0  0  0  0  0  0
   -2.6119  -25.7115   25.6785 C   0  0  0  0  0  0  0  0  0  0  0  0
   -3.3683  -25.4551   26.9480 C   0  0  0  0  0  0  0  0  0  0  0  0
   -2.5235  -27.0061   25.1463 C   0  0  0  0  0  0  0  0  0  0  0  0
   -1.7879  -27.2612   23.9772 C   0  0  0  0  0  0  0  0  0  0  0  0
   -1.7109  -28.6495   23.3699 C   0  0  0  0  0  0  0  0  0  0  0  0
   -0.5309  -29.4187   23.8069 N   0  0  0  0  0  0  0  0  0  0  0  0
   -0.6560  -29.8572   25.2064 C   0  0  0  0  0  0  0  0  0  0  0  0
   -1.7886  -30.8709   25.4656 C   0  0  0  0  0  0  0  0  0  0  0  0
   -2.1446  -31.6317   24.3027 O   0  0  0  0  0  0  0  0  0  0  0  0
   -0.9961  -31.9149   23.4968 C   0  0  0  0  0  0  0  0  0  0  0  0
   -0.3205  -30.6247   22.9493 C   0  0  2  0  0  0  0  0  0  0  0  0
    1.1261  -30.9363   22.7851 C   0  0  0  0  0  0  0  0  0  0  0  0
    2.2354  -31.2700   22.6899 N   0  0  0  0  0  0  0  0  0  0  0  0
   -1.1371  -26.1944   23.3463 C   0  0  0  0  0  0  0  0  0  0  0  0
  1  2  1  0
  2  3  2  0
  3  4  1  0
  4  5  1  0
  4  6  2  0
  6  7  1  0
  7  8  1  0
  8  9  1  0
  9 10  1  0
 10 11  1  0
 11 12  1  0
 12 13  1  0
 13 14  1  0
 14 15  1  1
 15 16  3  0
  7 17  2  0
 17  2  1  0
 14  9  1  0
M  END
>  <inchikey>  (120) 
MHSUVNYJJACEGZ-UHFFFAOYSA-N

>  <tags>  (120) 
fragmenstein_placed,CpKRS_FrAncestor_bulkdock_iter2

>  <ref_pdb>  (120) 
x0540b

>  <energy_score>  (120) 
-33.897764

>  <distance_score>  (120) 
0.444446

>  <HIPPO Pose ID>  (120) 
53022

>  <ref_mols>  (120) 
x0675b

>  <smiles>  (120) 
Cc1cc(C)cc(CN2CCOCC2C#N)c1

>  <HIPPO Compound ID>  (120) 
447559

>  <alias>  (120) 
MHSUVNYJJACEGZ-UHFFFAOYSA-N-P60

>  <subsites>  (120) 


>  <placement_batch>  (120) 
CpKRS_FrAncestor_bulkdock_iter2

>  <name>  (120) 
MHSUVNYJJACEGZ-UHFFFAOYSA-N-P60

$$$$
DKMXMAGCOSRWMA-UHFFFAOYSA-N-P60
     RDKit          3D

 17 18  0  0  0  0  0  0  0  0999 V2000
   -3.3478  -25.3023   27.0252 C   0  0  0  0  0  0  0  0  0  0  0  0
   -2.6434  -25.5831   25.7333 C   0  0  0  0  0  0  0  0  0  0  0  0
   -1.9611  -24.5628   25.0612 C   0  0  0  0  0  0  0  0  0  0  0  0
   -1.2855  -24.8237   23.8635 C   0  0  0  0  0  0  0  0  0  0  0  0
   -0.6757  -23.7202   23.0549 C   0  0  0  0  0  0  0  0  0  0  0  0
   -1.2597  -26.1268   23.3595 C   0  0  0  0  0  0  0  0  0  0  0  0
   -1.9517  -27.1566   24.0045 C   0  0  0  0  0  0  0  0  0  0  0  0
   -2.0001  -28.5324   23.3833 C   0  0  0  0  0  0  0  0  0  0  0  0
   -0.8676  -29.3938   23.7292 N   0  0  0  0  0  0  0  0  0  0  0  0
   -0.7874  -30.5434   22.8060 C   0  0  0  0  0  0  0  0  0  0  0  0
   -0.2058  -31.7987   23.4672 C   0  0  0  0  0  0  0  0  0  0  0  0
   -1.0476  -32.2684   24.5278 O   0  0  0  0  0  0  0  0  0  0  0  0
   -1.4894  -31.2281   25.4237 C   0  0  0  0  0  0  0  0  0  0  0  0
   -3.0189  -31.1888   25.3328 C   0  0  0  0  0  0  0  0  0  0  0  0
   -1.0947  -31.6768   26.8376 C   0  0  0  0  0  0  0  0  0  0  0  0
   -0.8370  -29.8440   25.1297 C   0  0  0  0  0  0  0  0  0  0  0  0
   -2.6369  -26.8743   25.1954 C   0  0  0  0  0  0  0  0  0  0  0  0
  1  2  1  0
  2  3  2  0
  3  4  1  0
  4  5  1  0
  4  6  2  0
  6  7  1  0
  7  8  1  0
  8  9  1  0
  9 10  1  0
 10 11  1  0
 11 12  1  0
 12 13  1  0
 13 14  1  0
 13 15  1  0
 13 16  1  0
  7 17  2  0
 17  2  1  0
 16  9  1  0
M  END
>  <inchikey>  (121) 
DKMXMAGCOSRWMA-UHFFFAOYSA-N

>  <tags>  (121) 
fragmenstein_placed,CpKRS_FrAncestor_bulkdock_iter2

>  <ref_pdb>  (121) 
x0540b

>  <energy_score>  (121) 
-28.704881

>  <distance_score>  (121) 
0.530226

>  <HIPPO Pose ID>  (121) 
53028

>  <ref_mols>  (121) 
x0675b

>  <smiles>  (121) 
Cc1cc(C)cc(CN2CCOC(C)(C)C2)c1

>  <HIPPO Compound ID>  (121) 
447560

>  <alias>  (121) 
DKMXMAGCOSRWMA-UHFFFAOYSA-N-P60

>  <subsites>  (121) 


>  <placement_batch>  (121) 
CpKRS_FrAncestor_bulkdock_iter2

>  <name>  (121) 
DKMXMAGCOSRWMA-UHFFFAOYSA-N-P60

$$$$
UTYSPDDFLFAQCH-UHFFFAOYSA-N-P60
     RDKit          3D

 18 19  0  0  0  0  0  0  0  0999 V2000
   -3.4826  -25.3880   27.1039 C   0  0  0  0  0  0  0  0  0  0  0  0
   -2.6829  -25.6158   25.8581 C   0  0  0  0  0  0  0  0  0  0  0  0
   -1.8935  -24.5950   25.3295 C   0  0  0  0  0  0  0  0  0  0  0  0
   -1.1261  -24.8172   24.1880 C   0  0  0  0  0  0  0  0  0  0  0  0
   -1.1291  -26.0657   23.5693 C   0  0  0  0  0  0  0  0  0  0  0  0
   -1.9330  -27.1031   24.0628 C   0  0  0  0  0  0  0  0  0  0  0  0
   -1.9907  -28.4288   23.3051 C   0  0  2  0  0  0  0  0  0  0  0  0
   -3.4119  -29.0310   23.3159 C   0  0  0  0  0  0  0  0  0  0  0  0
   -0.9056  -29.3520   23.7005 N   0  0  0  0  0  0  0  0  0  0  0  0
   -0.9987  -29.9169   25.0523 C   0  0  0  0  0  0  0  0  0  0  0  0
   -1.5348  -31.3503   25.0642 C   0  0  0  0  0  0  0  0  0  0  0  0
   -0.7167  -32.2756   24.3447 O   0  0  0  0  0  0  0  0  0  0  0  0
   -0.0162  -31.7196   23.2060 C   0  0  2  0  0  0  0  0  0  0  0  0
   -0.1121  -32.7900   22.1042 C   0  0  0  0  0  0  0  0  0  0  0  0
    1.4251  -31.5301   23.5110 C   0  0  0  0  0  0  0  0  0  0  0  0
    2.5688  -31.4358   23.6992 N   0  0  0  0  0  0  0  0  0  0  0  0
   -0.6591  -30.4019   22.6852 C   0  0  0  0  0  0  0  0  0  0  0  0
   -2.6895  -26.8636   25.2249 C   0  0  0  0  0  0  0  0  0  0  0  0
  1  2  1  0
  2  3  2  0
  3  4  1  0
  4  5  2  0
  5  6  1  0
  6  7  1  0
  7  8  1  1
  7  9  1  0
  9 10  1  0
 10 11  1  0
 11 12  1  0
 12 13  1  0
 13 14  1  6
 13 15  1  0
 15 16  3  0
 13 17  1  0
  6 18  2  0
 18  2  1  0
 17  9  1  0
M  END
>  <inchikey>  (122) 
UTYSPDDFLFAQCH-UHFFFAOYSA-N

>  <tags>  (122) 
fragmenstein_placed,CpKRS_FrAncestor_bulkdock_iter2

>  <ref_pdb>  (122) 
x0540b

>  <energy_score>  (122) 
-40.174196

>  <distance_score>  (122) 
0.547724

>  <HIPPO Pose ID>  (122) 
53030

>  <ref_mols>  (122) 
x0675b

>  <smiles>  (122) 
Cc1cccc(C(C)N2CCOC(C)(C#N)C2)c1

>  <HIPPO Compound ID>  (122) 
447561

>  <alias>  (122) 
UTYSPDDFLFAQCH-UHFFFAOYSA-N-P60

>  <subsites>  (122) 


>  <placement_batch>  (122) 
CpKRS_FrAncestor_bulkdock_iter2

>  <name>  (122) 
UTYSPDDFLFAQCH-UHFFFAOYSA-N-P60

$$$$
LEHLNAWVWZVEPG-ZDUSSCGKSA-N-P60
     RDKit          3D

 16 17  0  0  0  0  0  0  0  0999 V2000
   -3.3541  -25.4259   27.0602 C   0  0  0  0  0  0  0  0  0  0  0  0
   -2.6396  -25.6719   25.7661 C   0  0  0  0  0  0  0  0  0  0  0  0
   -2.0004  -24.6181   25.1014 C   0  0  0  0  0  0  0  0  0  0  0  0
   -1.3290  -24.8386   23.8933 C   0  0  0  0  0  0  0  0  0  0  0  0
   -0.7644  -23.7020   23.0970 C   0  0  0  0  0  0  0  0  0  0  0  0
   -1.2684  -26.1324   23.3679 C   0  0  0  0  0  0  0  0  0  0  0  0
   -1.9104  -27.1976   24.0090 C   0  0  0  0  0  0  0  0  0  0  0  0
   -1.8942  -28.5729   23.3770 C   0  0  0  0  0  0  0  0  0  0  0  0
   -0.6119  -29.2805   23.5296 N   0  0  0  0  0  0  0  0  0  0  0  0
   -0.3479  -29.6377   24.9328 C   0  0  0  0  0  0  0  0  0  0  0  0
   -1.2545  -30.7583   25.4787 C   0  0  0  0  0  0  0  0  0  0  0  0
   -1.5141  -31.8126   24.5404 O   0  0  0  0  0  0  0  0  0  0  0  0
   -0.5471  -31.8299   23.4859 C   0  0  0  0  0  0  0  0  0  0  0  0
   -0.5900  -30.5056   22.6851 C   0  0  2  0  0  0  0  0  0  0  0  0
    0.6123  -30.4226   21.7437 C   0  0  0  0  0  0  0  0  0  0  0  0
   -2.5862  -26.9586   25.2150 C   0  0  0  0  0  0  0  0  0  0  0  0
  1  2  1  0
  2  3  2  0
  3  4  1  0
  4  5  1  0
  4  6  2  0
  6  7  1  0
  7  8  1  0
  8  9  1  0
  9 10  1  0
 10 11  1  0
 11 12  1  0
 12 13  1  0
 13 14  1  0
 14 15  1  6
  7 16  2  0
 16  2  1  0
 14  9  1  0
M  END
>  <inchikey>  (123) 
LEHLNAWVWZVEPG-UHFFFAOYSA-N

>  <tags>  (123) 
fragmenstein_placed,CpKRS_FrAncestor_bulkdock_iter2

>  <ref_pdb>  (123) 
x0540b

>  <energy_score>  (123) 
-38.621764

>  <distance_score>  (123) 
0.464985

>  <HIPPO Pose ID>  (123) 
53032

>  <ref_mols>  (123) 
x0675b

>  <smiles>  (123) 
Cc1cc(C)cc(CN2CCOC[C@@H]2C)c1

>  <HIPPO Compound ID>  (123) 
139889

>  <alias>  (123) 
LEHLNAWVWZVEPG-ZDUSSCGKSA-N-P60

>  <subsites>  (123) 


>  <placement_batch>  (123) 
CpKRS_FrAncestor_bulkdock_iter2

>  <name>  (123) 
LEHLNAWVWZVEPG-ZDUSSCGKSA-N-P60

$$$$
GPZXODWVAUVSRE-UEWDXFNNSA-N-P60
     RDKit          3D

 16 17  0  0  0  0  0  0  0  0999 V2000
   -3.7579  -25.4598   27.0564 C   0  0  0  0  0  0  0  0  0  0  0  0
   -2.8608  -25.6406   25.8700 C   0  0  0  0  0  0  0  0  0  0  0  0
   -2.0226  -24.6030   25.4607 C   0  0  0  0  0  0  0  0  0  0  0  0
   -1.1667  -24.7781   24.3757 C   0  0  0  0  0  0  0  0  0  0  0  0
   -1.1099  -25.9990   23.7076 C   0  0  0  0  0  0  0  0  0  0  0  0
   -1.9633  -27.0469   24.0753 C   0  0  0  0  0  0  0  0  0  0  0  0
   -1.9918  -28.3685   23.3047 C   0  0  1  0  0  0  0  0  0  0  0  0
   -2.1255  -28.0653   21.7947 C   0  0  0  0  0  0  0  0  0  0  0  0
   -0.8330  -29.2421   23.6182 N   0  0  0  0  0  0  0  0  0  0  0  0
   -0.8185  -30.4576   22.7623 C   0  0  0  0  0  0  0  0  0  0  0  0
   -0.2533  -31.6988   23.4673 C   0  0  0  0  0  0  0  0  0  0  0  0
   -1.0516  -32.0745   24.5994 O   0  0  0  0  0  0  0  0  0  0  0  0
   -1.5544  -30.9457   25.3348 C   0  0  1  0  0  0  0  0  0  0  0  0
   -1.4969  -31.3057   26.8133 C   0  0  0  0  0  0  0  0  0  0  0  0
   -0.7747  -29.6458   25.0421 C   0  0  0  0  0  0  0  0  0  0  0  0
   -2.8293  -26.8540   25.1696 C   0  0  0  0  0  0  0  0  0  0  0  0
  1  2  1  0
  2  3  2  0
  3  4  1  0
  4  5  2  0
  5  6  1  0
  6  7  1  0
  7  8  1  6
  7  9  1  0
  9 10  1  0
 10 11  1  0
 11 12  1  0
 12 13  1  0
 13 14  1  1
 13 15  1  0
  6 16  2  0
 16  2  1  0
 15  9  1  0
M  END
>  <inchikey>  (124) 
GPZXODWVAUVSRE-UHFFFAOYSA-N

>  <tags>  (124) 
fragmenstein_placed,CpKRS_FrAncestor_bulkdock_iter2

>  <ref_pdb>  (124) 
x0540b

>  <energy_score>  (124) 
-35.563458

>  <distance_score>  (124) 
0.438722

>  <HIPPO Pose ID>  (124) 
53044

>  <ref_mols>  (124) 
x0675b

>  <smiles>  (124) 
Cc1cccc(C(C)N2CCO[C@@H](C)C2)c1

>  <HIPPO Compound ID>  (124) 
139637

>  <alias>  (124) 
GPZXODWVAUVSRE-UEWDXFNNSA-N-P60

>  <subsites>  (124) 


>  <placement_batch>  (124) 
CpKRS_FrAncestor_bulkdock_iter2

>  <name>  (124) 
GPZXODWVAUVSRE-UEWDXFNNSA-N-P60

$$$$
KJEJJBAJHMNQST-ZDUSSCGKSA-N-P59
     RDKit          3D

 16 17  0  0  0  0  0  0  0  0999 V2000
    7.0250  -20.5203   20.6606 C   0  0  0  0  0  0  0  0  0  0  0  0
    5.6776  -21.0995   20.8997 C   0  0  0  0  0  0  0  0  0  0  0  0
    4.7771  -20.3387   21.6406 C   0  0  0  0  0  0  0  0  0  0  0  0
    3.5961  -20.8855   22.1228 C   0  0  0  0  0  0  0  0  0  0  0  0
    2.7330  -20.0578   23.0218 C   0  0  0  0  0  0  0  0  0  0  0  0
    3.2797  -22.2011   21.7797 C   0  0  0  0  0  0  0  0  0  0  0  0
    4.1559  -22.9730   20.9969 C   0  0  0  0  0  0  0  0  0  0  0  0
    3.8160  -24.4123   20.7095 C   0  0  0  0  0  0  0  0  0  0  0  0
    2.8201  -24.5695   19.6473 N   0  0  0  0  0  0  0  0  0  0  0  0
    2.3468  -25.9617   19.5535 C   0  0  0  0  0  0  0  0  0  0  0  0
    2.8444  -26.6876   18.3025 C   0  0  0  0  0  0  0  0  0  0  0  0
    2.4775  -26.0459   17.0754 O   0  0  0  0  0  0  0  0  0  0  0  0
    2.4832  -24.6069   17.1486 C   0  0  1  0  0  0  0  0  0  0  0  0
    1.0429  -24.1047   17.1160 C   0  0  0  0  0  0  0  0  0  0  0  0
    3.2978  -24.0676   18.3435 C   0  0  0  0  0  0  0  0  0  0  0  0
    5.3540  -22.4062   20.5422 C   0  0  0  0  0  0  0  0  0  0  0  0
  1  2  1  0
  2  3  2  0
  3  4  1  0
  4  5  1  0
  4  6  2  0
  6  7  1  0
  7  8  1  0
  8  9  1  0
  9 10  1  0
 10 11  1  0
 11 12  1  0
 12 13  1  0
 13 14  1  1
 13 15  1  0
  7 16  2  0
 16  2  1  0
 15  9  1  0
M  END
>  <inchikey>  (125) 
KJEJJBAJHMNQST-UHFFFAOYSA-N

>  <tags>  (125) 
fragmenstein_placed,CpKRS_FrAncestor_bulkdock_iter2

>  <ref_pdb>  (125) 
x0540b

>  <energy_score>  (125) 
-14.837202

>  <distance_score>  (125) 
0.489639

>  <HIPPO Pose ID>  (125) 
53045

>  <ref_mols>  (125) 
x0675a

>  <smiles>  (125) 
Cc1cc(C)cc(CN2CCO[C@@H](C)C2)c1

>  <HIPPO Compound ID>  (125) 
139624

>  <alias>  (125) 
KJEJJBAJHMNQST-ZDUSSCGKSA-N-P59

>  <subsites>  (125) 


>  <placement_batch>  (125) 
CpKRS_FrAncestor_bulkdock_iter2

>  <name>  (125) 
KJEJJBAJHMNQST-ZDUSSCGKSA-N-P59

$$$$
ZEBMBNNVUIWRIC-UHFFFAOYSA-N-P54
     RDKit          3D

 12 12  0  0  0  0  0  0  0  0999 V2000
    4.8713  -38.4220   11.2756 C   0  0  0  0  0  0  0  0  0  0  0  0
    6.3267  -38.2622   11.6224 C   0  0  0  0  0  0  0  0  0  0  0  0
    6.8172  -39.0654   12.6668 C   0  0  0  0  0  0  0  0  0  0  0  0
    8.1450  -38.9924   13.0683 C   0  0  0  0  0  0  0  0  0  0  0  0
    9.0190  -38.1304   12.4190 C   0  0  0  0  0  0  0  0  0  0  0  0
    8.5797  -37.3088   11.3676 C   0  0  0  0  0  0  0  0  0  0  0  0
    9.6054  -36.3882   10.7589 C   0  0  0  0  0  0  0  0  0  0  0  0
    7.2096  -37.3500   10.9927 C   0  0  0  0  0  0  0  0  0  0  0  0
    6.5941  -36.1359    9.8137 S   0  0  0  0  0  0  0  0  0  0  0  0
    7.1463  -36.7449    8.3489 N   0  0  0  0  0  0  0  0  0  0  0  0
    7.2958  -34.8922   10.0511 O   0  0  0  0  0  0  0  0  0  0  0  0
    5.1521  -36.1523    9.7737 O   0  0  0  0  0  0  0  0  0  0  0  0
  1  2  1  0
  2  3  2  0
  3  4  1  0
  4  5  2  0
  5  6  1  0
  6  7  1  0
  6  8  2  0
  8  9  1  0
  9 10  1  0
  9 11  2  0
  9 12  2  0
  8  2  1  0
M  END
>  <inchikey>  (126) 
ZEBMBNNVUIWRIC-UHFFFAOYSA-N

>  <tags>  (126) 
fragmenstein_placed,CpKRS_FrAncestor_bulkdock_iter2

>  <ref_pdb>  (126) 
x0540b

>  <energy_score>  (126) 
-29.345569

>  <distance_score>  (126) 
0.359069

>  <HIPPO Pose ID>  (126) 
53061

>  <ref_mols>  (126) 
x0639c

>  <smiles>  (126) 
Cc1cccc(C)c1S(N)(=O)=O

>  <HIPPO Compound ID>  (126) 
447563

>  <alias>  (126) 
ZEBMBNNVUIWRIC-UHFFFAOYSA-N-P54

>  <subsites>  (126) 


>  <placement_batch>  (126) 
CpKRS_FrAncestor_bulkdock_iter2

>  <name>  (126) 
ZEBMBNNVUIWRIC-UHFFFAOYSA-N-P54

$$$$
ICIORPYRTPOHDI-UHFFFAOYSA-N-P54
     RDKit          3D

 16 16  0  0  0  0  0  0  0  0999 V2000
    4.8647  -38.1239   11.8622 C   0  0  0  0  0  0  0  0  0  0  0  0
    6.3681  -38.1180   11.9268 C   0  0  0  0  0  0  0  0  0  0  0  0
    6.9529  -38.9092   12.9308 C   0  0  0  0  0  0  0  0  0  0  0  0
    8.3278  -38.9235   13.1271 C   0  0  0  0  0  0  0  0  0  0  0  0
    9.1520  -38.1457   12.3245 C   0  0  0  0  0  0  0  0  0  0  0  0
    8.6204  -37.3440   11.3007 C   0  0  0  0  0  0  0  0  0  0  0  0
    9.5952  -36.4909   10.5303 C   0  0  0  0  0  0  0  0  0  0  0  0
    7.2141  -37.3450   11.0883 C   0  0  0  0  0  0  0  0  0  0  0  0
    6.5272  -36.2555    9.8303 S   0  0  0  0  0  0  0  0  0  0  0  0
    5.1009  -36.4419    9.7061 O   0  0  0  0  0  0  0  0  0  0  0  0
    7.0576  -34.9337   10.1054 O   0  0  0  0  0  0  0  0  0  0  0  0
    7.2406  -36.7556    8.4049 N   0  0  0  0  0  0  0  0  0  0  0  0
    6.8109  -37.9040    7.5822 C   0  0  0  0  0  0  0  0  0  0  0  0
    6.5355  -39.1614    8.4041 C   0  0  0  0  0  0  0  0  0  0  0  0
    5.5837  -37.5132    6.7518 C   0  0  0  0  0  0  0  0  0  0  0  0
    7.9790  -38.2034    6.6233 C   0  0  0  0  0  0  0  0  0  0  0  0
  1  2  1  0
  2  3  2  0
  3  4  1  0
  4  5  2  0
  5  6  1  0
  6  7  1  0
  6  8  2  0
  8  9  1  0
  9 10  2  0
  9 11  2  0
  9 12  1  0
 12 13  1  0
 13 14  1  0
 13 15  1  0
 13 16  1  0
  8  2  1  0
M  END
>  <inchikey>  (127) 
ICIORPYRTPOHDI-UHFFFAOYSA-N

>  <tags>  (127) 
fragmenstein_placed,CpKRS_FrAncestor_bulkdock_iter2

>  <ref_pdb>  (127) 
x0540b

>  <energy_score>  (127) 
-60.305729

>  <distance_score>  (127) 
0.264324

>  <HIPPO Pose ID>  (127) 
53064

>  <ref_mols>  (127) 
x0639c

>  <smiles>  (127) 
Cc1cccc(C)c1S(=O)(=O)NC(C)(C)C

>  <HIPPO Compound ID>  (127) 
134094

>  <alias>  (127) 
ICIORPYRTPOHDI-UHFFFAOYSA-N-P54

>  <subsites>  (127) 


>  <placement_batch>  (127) 
CpKRS_FrAncestor_bulkdock_iter2

>  <name>  (127) 
ICIORPYRTPOHDI-UHFFFAOYSA-N-P54

$$$$
DFVPFJGYKSNEKF-UHFFFAOYSA-N-P54
     RDKit          3D

 15 15  0  0  0  0  0  0  0  0999 V2000
    9.6118  -36.4239   10.6705 C   0  0  0  0  0  0  0  0  0  0  0  0
    8.6075  -37.3212   11.3463 C   0  0  0  0  0  0  0  0  0  0  0  0
    9.0861  -38.1306   12.3898 C   0  0  0  0  0  0  0  0  0  0  0  0
    8.2306  -38.9592   13.1039 C   0  0  0  0  0  0  0  0  0  0  0  0
    6.8789  -39.0008   12.7859 C   0  0  0  0  0  0  0  0  0  0  0  0
    6.3473  -38.2053   11.7556 C   0  0  0  0  0  0  0  0  0  0  0  0
    4.8646  -38.3090   11.5245 C   0  0  0  0  0  0  0  0  0  0  0  0
    7.2198  -37.3468   11.0390 C   0  0  0  0  0  0  0  0  0  0  0  0
    6.5832  -36.1805    9.8217 S   0  0  0  0  0  0  0  0  0  0  0  0
    7.2154  -34.9028   10.0833 O   0  0  0  0  0  0  0  0  0  0  0  0
    5.1433  -36.2601    9.7358 O   0  0  0  0  0  0  0  0  0  0  0  0
    7.2083  -36.7622    8.3896 N   0  0  0  0  0  0  0  0  0  0  0  0
    6.6739  -37.9770    7.7750 C   0  0  0  0  0  0  0  0  0  0  0  0
    5.7383  -37.5928    6.6358 C   0  0  0  0  0  0  0  0  0  0  0  0
    7.8453  -38.8084    7.2641 C   0  0  0  0  0  0  0  0  0  0  0  0
  1  2  1  0
  2  3  2  0
  3  4  1  0
  4  5  2  0
  5  6  1  0
  6  7  1  0
  6  8  2  0
  8  9  1  0
  9 10  2  0
  9 11  2  0
  9 12  1  0
 12 13  1  0
 13 14  1  0
 13 15  1  0
  8  2  1  0
M  END
>  <inchikey>  (128) 
DFVPFJGYKSNEKF-UHFFFAOYSA-N

>  <tags>  (128) 
fragmenstein_placed,CpKRS_FrAncestor_bulkdock_iter2

>  <ref_pdb>  (128) 
x0540b

>  <energy_score>  (128) 
-44.925497

>  <distance_score>  (128) 
0.205027

>  <HIPPO Pose ID>  (128) 
53067

>  <ref_mols>  (128) 
x0639c

>  <smiles>  (128) 
Cc1cccc(C)c1S(=O)(=O)NC(C)C

>  <HIPPO Compound ID>  (128) 
312134

>  <alias>  (128) 
DFVPFJGYKSNEKF-UHFFFAOYSA-N-P54

>  <subsites>  (128) 


>  <placement_batch>  (128) 
CpKRS_FrAncestor_bulkdock_iter2

>  <name>  (128) 
DFVPFJGYKSNEKF-UHFFFAOYSA-N-P54

$$$$
BRETYAHLENMEAI-UHFFFAOYSA-N-P52
     RDKit          3D

 12 12  0  0  0  0  0  0  0  0999 V2000
   21.3079   10.4577   23.8470 C   0  0  0  0  0  0  0  0  0  0  0  0
   22.7557   10.0433   23.8666 C   0  0  0  0  0  0  0  0  0  0  0  0
   23.6537   10.7958   23.0954 C   0  0  0  0  0  0  0  0  0  0  0  0
   25.0107   10.5061   23.0760 C   0  0  0  0  0  0  0  0  0  0  0  0
   25.4946    9.4301   23.8064 C   0  0  0  0  0  0  0  0  0  0  0  0
   24.6356    8.6324   24.5832 C   0  0  0  0  0  0  0  0  0  0  0  0
   25.2577    7.4445   25.2661 C   0  0  0  0  0  0  0  0  0  0  0  0
   23.2607    8.9728   24.6459 C   0  0  0  0  0  0  0  0  0  0  0  0
   22.1221    8.0898   25.7223 S   0  0  0  0  0  0  0  0  0  0  0  0
   21.3435    9.0706   26.4504 O   0  0  0  0  0  0  0  0  0  0  0  0
   22.8318    7.0533   26.4388 O   0  0  0  0  0  0  0  0  0  0  0  0
   21.1524    7.3121   24.6988 O   0  0  0  0  0  0  0  0  0  0  0  0
  1  2  1  0
  2  3  2  0
  3  4  1  0
  4  5  2  0
  5  6  1  0
  6  7  1  0
  6  8  2  0
  8  9  1  0
  9 10  2  0
  9 11  2  0
  9 12  1  0
  8  2  1  0
M  END
>  <inchikey>  (129) 
BRETYAHLENMEAI-UHFFFAOYSA-N

>  <tags>  (129) 
fragmenstein_placed,CpKRS_FrAncestor_bulkdock_iter2

>  <ref_pdb>  (129) 
x0540b

>  <energy_score>  (129) 
-22.069933

>  <distance_score>  (129) 
0.393358

>  <HIPPO Pose ID>  (129) 
53068

>  <ref_mols>  (129) 
x0639a

>  <smiles>  (129) 
Cc1cccc(C)c1S(=O)(=O)O

>  <HIPPO Compound ID>  (129) 
447564

>  <alias>  (129) 
BRETYAHLENMEAI-UHFFFAOYSA-N-P52

>  <subsites>  (129) 


>  <placement_batch>  (129) 
CpKRS_FrAncestor_bulkdock_iter2

>  <name>  (129) 
BRETYAHLENMEAI-UHFFFAOYSA-N-P52

$$$$
IQLIZDJYKJGPFT-UHFFFAOYSA-N-P54
     RDKit          3D

 14 14  0  0  0  0  0  0  0  0999 V2000
    4.7731  -38.2337   11.2514 C   0  0  0  0  0  0  0  0  0  0  0  0
    6.2296  -38.1456   11.6101 C   0  0  0  0  0  0  0  0  0  0  0  0
    6.6382  -38.9340   12.7013 C   0  0  0  0  0  0  0  0  0  0  0  0
    7.9641  -38.9757   13.1039 C   0  0  0  0  0  0  0  0  0  0  0  0
    8.9192  -38.2427   12.4137 C   0  0  0  0  0  0  0  0  0  0  0  0
    8.5703  -37.4095   11.3324 C   0  0  0  0  0  0  0  0  0  0  0  0
    9.7002  -36.6821   10.5948 C   0  0  0  0  0  0  0  0  0  0  0  0
   10.3150  -37.6079    9.5395 C   0  0  0  0  0  0  0  0  0  0  0  0
   10.8023  -36.1496   11.5216 C   0  0  0  0  0  0  0  0  0  0  0  0
    7.1951  -37.3449   10.9462 C   0  0  0  0  0  0  0  0  0  0  0  0
    6.7551  -36.1689    9.6684 S   0  0  0  0  0  0  0  0  0  0  0  0
    5.0868  -36.0386    9.5938 N   0  0  0  0  0  0  0  0  0  0  0  0
    7.1453  -36.7116    8.3894 O   0  0  0  0  0  0  0  0  0  0  0  0
    7.1600  -34.8543   10.1238 O   0  0  0  0  0  0  0  0  0  0  0  0
  1  2  1  0
  2  3  2  0
  3  4  1  0
  4  5  2  0
  5  6  1  0
  6  7  1  0
  7  8  1  0
  7  9  1  0
  6 10  2  0
 10 11  1  0
 11 12  1  0
 11 13  2  0
 11 14  2  0
 10  2  1  0
M  END
>  <inchikey>  (130) 
IQLIZDJYKJGPFT-UHFFFAOYSA-N

>  <tags>  (130) 
fragmenstein_placed,CpKRS_FrAncestor_bulkdock_iter2

>  <ref_pdb>  (130) 
x0540b

>  <energy_score>  (130) 
-37.87851

>  <distance_score>  (130) 
0.293333

>  <HIPPO Pose ID>  (130) 
53076

>  <ref_mols>  (130) 
x0639c

>  <smiles>  (130) 
Cc1cccc(C(C)C)c1S(N)(=O)=O

>  <HIPPO Compound ID>  (130) 
447566

>  <alias>  (130) 
IQLIZDJYKJGPFT-UHFFFAOYSA-N-P54

>  <subsites>  (130) 


>  <placement_batch>  (130) 
CpKRS_FrAncestor_bulkdock_iter2

>  <name>  (130) 
IQLIZDJYKJGPFT-UHFFFAOYSA-N-P54

$$$$
NWOZNUJMTCTHNT-UHFFFAOYSA-N-P59
     RDKit          3D

 17 18  0  0  0  0  0  0  0  0999 V2000
    6.7108  -22.5496   20.1090 C   0  0  0  0  0  0  0  0  0  0  0  0
    5.4857  -21.9192   20.6695 C   0  0  0  0  0  0  0  0  0  0  0  0
    5.5244  -20.5445   20.8988 C   0  0  0  0  0  0  0  0  0  0  0  0
    4.5024  -19.9285   21.6051 C   0  0  0  0  0  0  0  0  0  0  0  0
    3.4580  -20.6608   22.1675 C   0  0  0  0  0  0  0  0  0  0  0  0
    2.3768  -19.9554   22.9715 C   0  0  0  0  0  0  0  0  0  0  0  0
    2.8408  -19.4768   24.3403 C   0  0  0  0  0  0  0  0  0  0  0  0
    1.0816  -20.7821   23.1066 C   0  0  0  0  0  0  0  0  0  0  0  0
    3.3855  -22.0204   21.8464 C   0  0  0  0  0  0  0  0  0  0  0  0
    4.3657  -22.6636   21.0790 C   0  0  0  0  0  0  0  0  0  0  0  0
    4.1438  -24.1323   20.7979 C   0  0  0  0  0  0  0  0  0  0  0  0
    3.1148  -24.3616   19.7802 N   0  0  0  0  0  0  0  0  0  0  0  0
    3.5154  -23.9002   18.4383 C   0  0  0  0  0  0  0  0  0  0  0  0
    2.6114  -24.5088   17.3592 C   0  0  0  0  0  0  0  0  0  0  0  0
    2.7584  -25.9354   17.2696 O   0  0  0  0  0  0  0  0  0  0  0  0
    3.0792  -26.5438   18.5291 C   0  0  0  0  0  0  0  0  0  0  0  0
    2.6160  -25.7464   19.7547 C   0  0  0  0  0  0  0  0  0  0  0  0
  1  2  1  0
  2  3  2  0
  3  4  1  0
  4  5  2  0
  5  6  1  0
  6  7  1  0
  6  8  1  0
  5  9  1  0
  9 10  2  0
 10 11  1  0
 11 12  1  0
 12 13  1  0
 13 14  1  0
 14 15  1  0
 15 16  1  0
 16 17  1  0
 10  2  1  0
 17 12  1  0
M  END
>  <inchikey>  (131) 
NWOZNUJMTCTHNT-UHFFFAOYSA-N

>  <tags>  (131) 
fragmenstein_placed,CpKRS_FrAncestor_bulkdock_iter2

>  <ref_pdb>  (131) 
x0540b

>  <energy_score>  (131) 
-16.401694

>  <distance_score>  (131) 
0.440905

>  <HIPPO Pose ID>  (131) 
53077

>  <ref_mols>  (131) 
x0675a

>  <smiles>  (131) 
Cc1ccc(C(C)C)cc1CN1CCOCC1

>  <HIPPO Compound ID>  (131) 
447567

>  <alias>  (131) 
NWOZNUJMTCTHNT-UHFFFAOYSA-N-P59

>  <subsites>  (131) 


>  <placement_batch>  (131) 
CpKRS_FrAncestor_bulkdock_iter2

>  <name>  (131) 
NWOZNUJMTCTHNT-UHFFFAOYSA-N-P59

$$$$
SNVIGWTVPGPYGT-UHFFFAOYSA-N-P60
     RDKit          3D

 17 18  0  0  0  0  0  0  0  0999 V2000
   -3.7124  -25.4149   27.0123 C   0  0  0  0  0  0  0  0  0  0  0  0
   -2.8208  -25.6203   25.8268 C   0  0  0  0  0  0  0  0  0  0  0  0
   -1.9906  -24.5971   25.3834 C   0  0  0  0  0  0  0  0  0  0  0  0
   -1.1346  -24.8019   24.2995 C   0  0  0  0  0  0  0  0  0  0  0  0
   -1.0585  -26.0374   23.6327 C   0  0  0  0  0  0  0  0  0  0  0  0
   -0.0497  -26.2276   22.5027 C   0  0  0  0  0  0  0  0  0  0  0  0
    1.3604  -26.4314   23.0647 C   0  0  0  0  0  0  0  0  0  0  0  0
   -0.0615  -25.0820   21.4827 C   0  0  0  0  0  0  0  0  0  0  0  0
   -1.9119  -27.0753   24.0675 C   0  0  0  0  0  0  0  0  0  0  0  0
   -1.9677  -28.4353   23.3944 C   0  0  0  0  0  0  0  0  0  0  0  0
   -0.8218  -29.3055   23.6969 N   0  0  0  0  0  0  0  0  0  0  0  0
   -0.8168  -30.4632   22.7723 C   0  0  0  0  0  0  0  0  0  0  0  0
   -0.3305  -31.7613   23.4314 C   0  0  0  0  0  0  0  0  0  0  0  0
   -1.1804  -32.1549   24.5182 O   0  0  0  0  0  0  0  0  0  0  0  0
   -1.6074  -31.0497   25.3264 C   0  0  0  0  0  0  0  0  0  0  0  0
   -0.7998  -29.7641   25.0979 C   0  0  0  0  0  0  0  0  0  0  0  0
   -2.7753  -26.8497   25.1643 C   0  0  0  0  0  0  0  0  0  0  0  0
  1  2  1  0
  2  3  2  0
  3  4  1  0
  4  5  2  0
  5  6  1  0
  6  7  1  0
  6  8  1  0
  5  9  1  0
  9 10  1  0
 10 11  1  0
 11 12  1  0
 12 13  1  0
 13 14  1  0
 14 15  1  0
 15 16  1  0
  9 17  2  0
 17  2  1  0
 16 11  1  0
M  END
>  <inchikey>  (132) 
SNVIGWTVPGPYGT-UHFFFAOYSA-N

>  <tags>  (132) 
fragmenstein_placed,CpKRS_FrAncestor_bulkdock_iter2

>  <ref_pdb>  (132) 
x0540b

>  <energy_score>  (132) 
-29.40292

>  <distance_score>  (132) 
0.412621

>  <HIPPO Pose ID>  (132) 
53080

>  <ref_mols>  (132) 
x0675b

>  <smiles>  (132) 
Cc1ccc(C(C)C)c(CN2CCOCC2)c1

>  <HIPPO Compound ID>  (132) 
447568

>  <alias>  (132) 
SNVIGWTVPGPYGT-UHFFFAOYSA-N-P60

>  <subsites>  (132) 


>  <placement_batch>  (132) 
CpKRS_FrAncestor_bulkdock_iter2

>  <name>  (132) 
SNVIGWTVPGPYGT-UHFFFAOYSA-N-P60

$$$$
KANGSGOAIDKNJZ-UHFFFAOYSA-N-P59
     RDKit          3D

 17 18  0  0  0  0  0  0  0  0999 V2000
    2.5127  -19.9343   23.0603 C   0  0  0  0  0  0  0  0  0  0  0  0
    3.3654  -20.7903   22.1660 C   0  0  0  0  0  0  0  0  0  0  0  0
    4.5300  -20.1758   21.7077 C   0  0  0  0  0  0  0  0  0  0  0  0
    5.4967  -20.8430   20.9814 C   0  0  0  0  0  0  0  0  0  0  0  0
    6.7962  -20.1373   20.7869 C   0  0  0  0  0  0  0  0  0  0  0  0
    5.2476  -22.1565   20.6069 C   0  0  0  0  0  0  0  0  0  0  0  0
    6.3451  -22.9089   19.9667 C   0  0  0  0  0  0  0  0  0  0  0  0
    4.0450  -22.8106   20.9881 C   0  0  0  0  0  0  0  0  0  0  0  0
    3.8158  -24.2822   20.6556 C   0  0  0  0  0  0  0  0  0  0  0  0
    2.8090  -24.4992   19.6145 N   0  0  0  0  0  0  0  0  0  0  0  0
    2.3496  -25.8956   19.5473 C   0  0  0  0  0  0  0  0  0  0  0  0
    2.8806  -26.6478   18.3232 C   0  0  0  0  0  0  0  0  0  0  0  0
    2.5591  -26.0281   17.0684 O   0  0  0  0  0  0  0  0  0  0  0  0
    2.3594  -24.6080   17.1803 C   0  0  0  0  0  0  0  0  0  0  0  0
    3.2159  -23.9922   18.2920 C   0  0  0  0  0  0  0  0  0  0  0  0
    3.0742  -22.1020   21.7447 C   0  0  0  0  0  0  0  0  0  0  0  0
    1.7097  -22.7221   21.9425 C   0  0  0  0  0  0  0  0  0  0  0  0
  1  2  1  0
  2  3  2  0
  3  4  1  0
  4  5  1  0
  4  6  2  0
  6  7  1  0
  6  8  1  0
  8  9  1  0
  9 10  1  0
 10 11  1  0
 11 12  1  0
 12 13  1  0
 13 14  1  0
 14 15  1  0
  8 16  2  0
 16 17  1  0
 16  2  1  0
 15 10  1  0
M  END
>  <inchikey>  (133) 
KANGSGOAIDKNJZ-UHFFFAOYSA-N

>  <tags>  (133) 
fragmenstein_placed,CpKRS_FrAncestor_bulkdock_iter2

>  <ref_pdb>  (133) 
x0540b

>  <energy_score>  (133) 
-26.751886

>  <distance_score>  (133) 
0.561491

>  <HIPPO Pose ID>  (133) 
53081

>  <ref_mols>  (133) 
x0675a

>  <smiles>  (133) 
Cc1cc(C)c(C)c(CN2CCOCC2)c1C

>  <HIPPO Compound ID>  (133) 
447569

>  <alias>  (133) 
KANGSGOAIDKNJZ-UHFFFAOYSA-N-P59

>  <subsites>  (133) 


>  <placement_batch>  (133) 
CpKRS_FrAncestor_bulkdock_iter2

>  <name>  (133) 
KANGSGOAIDKNJZ-UHFFFAOYSA-N-P59

$$$$
SCZUEYHSMMOKBO-UHFFFAOYSA-N-P60
     RDKit          3D

 16 17  0  0  0  0  0  0  0  0999 V2000
   -0.6535  -23.7358   23.0795 C   0  0  0  0  0  0  0  0  0  0  0  0
   -1.2841  -24.8344   23.8805 C   0  0  0  0  0  0  0  0  0  0  0  0
   -1.9852  -24.5675   25.0614 C   0  0  0  0  0  0  0  0  0  0  0  0
   -2.7013  -25.5800   25.7092 C   0  0  0  0  0  0  0  0  0  0  0  0
   -3.4387  -25.2933   26.9815 C   0  0  0  0  0  0  0  0  0  0  0  0
   -2.7099  -26.8672   25.1581 C   0  0  0  0  0  0  0  0  0  0  0  0
   -2.0052  -27.1579   23.9768 C   0  0  0  0  0  0  0  0  0  0  0  0
   -2.1009  -28.5479   23.3486 C   0  0  1  0  0  0  0  0  0  0  0  0
   -2.4937  -28.3974   21.8600 C   0  0  0  0  0  0  0  0  0  0  0  0
   -0.8710  -29.3519   23.5474 N   0  0  0  0  0  0  0  0  0  0  0  0
   -0.5836  -29.6220   24.9726 C   0  0  0  0  0  0  0  0  0  0  0  0
   -1.2674  -30.8952   25.4946 C   0  0  0  0  0  0  0  0  0  0  0  0
   -0.9000  -32.0828   24.7786 O   0  0  0  0  0  0  0  0  0  0  0  0
   -0.2467  -31.8021   23.5320 C   0  0  0  0  0  0  0  0  0  0  0  0
   -0.9249  -30.6350   22.8015 C   0  0  0  0  0  0  0  0  0  0  0  0
   -1.2629  -26.1363   23.3718 C   0  0  0  0  0  0  0  0  0  0  0  0
  1  2  1  0
  2  3  2  0
  3  4  1  0
  4  5  1  0
  4  6  2  0
  6  7  1  0
  7  8  1  0
  8  9  1  6
  8 10  1  0
 10 11  1  0
 11 12  1  0
 12 13  1  0
 13 14  1  0
 14 15  1  0
  7 16  2  0
 16  2  1  0
 15 10  1  0
M  END
>  <inchikey>  (134) 
SCZUEYHSMMOKBO-UHFFFAOYSA-N

>  <tags>  (134) 
fragmenstein_placed,CpKRS_FrAncestor_bulkdock_iter2

>  <ref_pdb>  (134) 
x0540b

>  <energy_score>  (134) 
-23.465219

>  <distance_score>  (134) 
0.561715

>  <HIPPO Pose ID>  (134) 
53084

>  <ref_mols>  (134) 
x0675b

>  <smiles>  (134) 
Cc1cc(C)cc(C(C)N2CCOCC2)c1

>  <HIPPO Compound ID>  (134) 
139726

>  <alias>  (134) 
SCZUEYHSMMOKBO-UHFFFAOYSA-N-P60

>  <subsites>  (134) 


>  <placement_batch>  (134) 
CpKRS_FrAncestor_bulkdock_iter2

>  <name>  (134) 
SCZUEYHSMMOKBO-UHFFFAOYSA-N-P60

$$$$
WEDFFWXCZINKNR-UHFFFAOYSA-N-P60
     RDKit          3D

 16 17  0  0  0  0  0  0  0  0999 V2000
   -3.6981  -25.3743   27.0741 C   0  0  0  0  0  0  0  0  0  0  0  0
   -2.8210  -25.5703   25.8761 C   0  0  0  0  0  0  0  0  0  0  0  0
   -2.0173  -24.5351   25.4124 C   0  0  0  0  0  0  0  0  0  0  0  0
   -1.1815  -24.7344   24.3151 C   0  0  0  0  0  0  0  0  0  0  0  0
   -1.1048  -25.9779   23.6694 C   0  0  0  0  0  0  0  0  0  0  0  0
   -0.1543  -26.1225   22.5109 C   0  0  0  0  0  0  0  0  0  0  0  0
   -1.9448  -27.0296   24.0972 C   0  0  0  0  0  0  0  0  0  0  0  0
   -1.9807  -28.3741   23.3554 C   0  0  2  0  0  0  0  0  0  0  0  0
   -3.4061  -28.9601   23.2707 C   0  0  0  0  0  0  0  0  0  0  0  0
   -0.9486  -29.3050   23.8488 N   0  0  0  0  0  0  0  0  0  0  0  0
   -1.1680  -29.8858   25.1797 C   0  0  0  0  0  0  0  0  0  0  0  0
   -1.7364  -31.3116   25.1473 C   0  0  0  0  0  0  0  0  0  0  0  0
   -0.9476  -32.2391   24.3923 O   0  0  0  0  0  0  0  0  0  0  0  0
   -0.0131  -31.6019   23.5112 C   0  0  0  0  0  0  0  0  0  0  0  0
   -0.5992  -30.3423   22.8579 C   0  0  0  0  0  0  0  0  0  0  0  0
   -2.7746  -26.8047   25.2184 C   0  0  0  0  0  0  0  0  0  0  0  0
  1  2  1  0
  2  3  2  0
  3  4  1  0
  4  5  2  0
  5  6  1  0
  5  7  1  0
  7  8  1  0
  8  9  1  1
  8 10  1  0
 10 11  1  0
 11 12  1  0
 12 13  1  0
 13 14  1  0
 14 15  1  0
  7 16  2  0
 16  2  1  0
 15 10  1  0
M  END
>  <inchikey>  (135) 
WEDFFWXCZINKNR-UHFFFAOYSA-N

>  <tags>  (135) 
fragmenstein_placed,CpKRS_FrAncestor_bulkdock_iter2

>  <ref_pdb>  (135) 
x0540b

>  <energy_score>  (135) 
-49.518466

>  <distance_score>  (135) 
0.498369

>  <HIPPO Pose ID>  (135) 
53086

>  <ref_mols>  (135) 
x0675b

>  <smiles>  (135) 
Cc1ccc(C)c(C(C)N2CCOCC2)c1

>  <HIPPO Compound ID>  (135) 
139754

>  <alias>  (135) 
WEDFFWXCZINKNR-UHFFFAOYSA-N-P60

>  <subsites>  (135) 


>  <placement_batch>  (135) 
CpKRS_FrAncestor_bulkdock_iter2

>  <name>  (135) 
WEDFFWXCZINKNR-UHFFFAOYSA-N-P60

$$$$
LQLVAHCBEOVZOQ-UHFFFAOYSA-N-P60
     RDKit          3D

 16 17  0  0  0  0  0  0  0  0999 V2000
   -0.5413  -23.8717   22.9784 C   0  0  0  0  0  0  0  0  0  0  0  0
   -1.2303  -24.8995   23.8236 C   0  0  0  0  0  0  0  0  0  0  0  0
   -1.9545  -24.5448   24.9611 C   0  0  0  0  0  0  0  0  0  0  0  0
   -2.7159  -25.4949   25.6624 C   0  0  0  0  0  0  0  0  0  0  0  0
   -3.5041  -25.0350   26.8584 C   0  0  0  0  0  0  0  0  0  0  0  0
   -2.7393  -26.8415   25.2278 C   0  0  0  0  0  0  0  0  0  0  0  0
   -3.6234  -27.8346   25.9408 C   0  0  0  0  0  0  0  0  0  0  0  0
   -2.0049  -27.2023   24.0717 C   0  0  0  0  0  0  0  0  0  0  0  0
   -2.0394  -28.5838   23.4434 C   0  0  0  0  0  0  0  0  0  0  0  0
   -0.8101  -29.3667   23.6449 N   0  0  0  0  0  0  0  0  0  0  0  0
   -0.8087  -30.5358   22.7330 C   0  0  0  0  0  0  0  0  0  0  0  0
   -0.2228  -31.8049   23.3676 C   0  0  0  0  0  0  0  0  0  0  0  0
   -0.9735  -32.2146   24.5193 O   0  0  0  0  0  0  0  0  0  0  0  0
   -1.3523  -31.1177   25.3616 C   0  0  0  0  0  0  0  0  0  0  0  0
   -0.6262  -29.8029   25.0391 C   0  0  0  0  0  0  0  0  0  0  0  0
   -1.2381  -26.2286   23.4070 C   0  0  0  0  0  0  0  0  0  0  0  0
  1  2  1  0
  2  3  2  0
  3  4  1  0
  4  5  1  0
  4  6  2  0
  6  7  1  0
  6  8  1  0
  8  9  1  0
  9 10  1  0
 10 11  1  0
 11 12  1  0
 12 13  1  0
 13 14  1  0
 14 15  1  0
  8 16  2  0
 16  2  1  0
 15 10  1  0
M  END
>  <inchikey>  (136) 
LQLVAHCBEOVZOQ-UHFFFAOYSA-N

>  <tags>  (136) 
fragmenstein_placed,CpKRS_FrAncestor_bulkdock_iter2

>  <ref_pdb>  (136) 
x0540b

>  <energy_score>  (136) 
-25.9589

>  <distance_score>  (136) 
0.562286

>  <HIPPO Pose ID>  (136) 
53088

>  <ref_mols>  (136) 
x0675b

>  <smiles>  (136) 
Cc1cc(C)c(C)c(CN2CCOCC2)c1

>  <HIPPO Compound ID>  (136) 
142117

>  <alias>  (136) 
LQLVAHCBEOVZOQ-UHFFFAOYSA-N-P60

>  <subsites>  (136) 


>  <placement_batch>  (136) 
CpKRS_FrAncestor_bulkdock_iter2

>  <name>  (136) 
LQLVAHCBEOVZOQ-UHFFFAOYSA-N-P60

$$$$
AVGGMJYOAXUHHS-UHFFFAOYSA-N-P20
     RDKit          3D

 16 17  0  0  0  0  0  0  0  0999 V2000
    4.7090    9.8826   40.7658 C   0  0  0  0  0  0  0  0  0  0  0  0
    4.8429    8.3963   40.8633 C   0  0  0  0  0  0  0  0  0  0  0  0
    5.6991    7.7310   39.9984 C   0  0  0  0  0  0  0  0  0  0  0  0
    5.8165    6.3567   40.1101 C   0  0  0  0  0  0  0  0  0  0  0  0
    5.0591    5.6670   41.0635 C   0  0  0  0  0  0  0  0  0  0  0  0
    5.2903    4.2010   41.1683 C   0  0  0  0  0  0  0  0  0  0  0  0
    4.1548    6.4021   41.8379 C   0  0  0  0  0  0  0  0  0  0  0  0
    3.2031    5.7742   42.8505 C   0  0  0  0  0  0  0  0  0  0  0  0
    2.9231    4.6446   42.7681 O   0  0  0  0  0  0  0  0  0  0  0  0
    2.8096    6.8290   43.9104 N   0  0  0  0  0  0  0  0  0  0  0  0
    2.0709    6.6909   45.1346 C   0  0  0  0  0  0  0  0  0  0  0  0
    2.7826    5.7643   46.0676 C   0  0  1  0  0  0  0  0  0  0  0  0
    2.0102    4.8792   47.0241 C   0  0  0  0  0  0  0  0  0  0  0  0
    2.6421    4.3007   45.8026 C   0  0  2  0  0  0  0  0  0  0  0  0
    3.9887    3.2401   45.9413 Cl  0  0  0  0  0  0  0  0  0  0  0  0
    4.0956    7.7637   41.7991 N   0  0  0  0  0  0  0  0  0  0  0  0
  1  2  1  0
  2  3  2  0
  3  4  1  0
  4  5  2  0
  5  6  1  0
  5  7  1  0
  7  8  1  0
  8  9  2  0
  8 10  1  0
 10 11  1  0
 12 11  1  6
 12 13  1  0
 13 14  1  0
 14 15  1  1
  7 16  2  0
 16  2  1  0
 14 12  1  0
M  END
>  <inchikey>  (137) 
AVGGMJYOAXUHHS-UHFFFAOYSA-N

>  <tags>  (137) 
fragmenstein_placed,CpKRS_FrAncestor_bulkdock_iter2

>  <ref_pdb>  (137) 
x0540b

>  <energy_score>  (137) 
-4.747341

>  <distance_score>  (137) 
0.792114

>  <HIPPO Pose ID>  (137) 
53093

>  <ref_mols>  (137) 
x0456a

>  <smiles>  (137) 
Cc1ccc(C)c(C(=O)NCC2CC2Cl)n1

>  <HIPPO Compound ID>  (137) 
123125

>  <alias>  (137) 
AVGGMJYOAXUHHS-UHFFFAOYSA-N-P20

>  <subsites>  (137) 


>  <placement_batch>  (137) 
CpKRS_FrAncestor_bulkdock_iter2

>  <name>  (137) 
AVGGMJYOAXUHHS-UHFFFAOYSA-N-P20

$$$$
SXWINLYNTGRHIF-UHFFFAOYSA-N-P20
     RDKit          3D

 16 17  0  0  0  0  0  0  0  0999 V2000
    4.4390    9.7701   40.9878 C   0  0  0  0  0  0  0  0  0  0  0  0
    4.7219    8.3018   40.9774 C   0  0  0  0  0  0  0  0  0  0  0  0
    5.5983    7.7927   40.0301 C   0  0  0  0  0  0  0  0  0  0  0  0
    5.8525    6.4340   40.0268 C   0  0  0  0  0  0  0  0  0  0  0  0
    5.2157    5.6040   40.9539 C   0  0  0  0  0  0  0  0  0  0  0  0
    5.5733    4.1605   40.9127 C   0  0  0  0  0  0  0  0  0  0  0  0
    4.2906    6.1837   41.8323 C   0  0  0  0  0  0  0  0  0  0  0  0
    3.4722    5.3745   42.8376 C   0  0  0  0  0  0  0  0  0  0  0  0
    3.3505    4.2255   42.6888 O   0  0  0  0  0  0  0  0  0  0  0  0
    2.8950    6.3080   43.9199 N   0  0  0  0  0  0  0  0  0  0  0  0
    2.1244    6.0084   45.1004 C   0  0  2  0  0  0  0  0  0  0  0  0
    1.4893    7.2417   45.7173 C   0  0  0  0  0  0  0  0  0  0  0  0
    2.9955    5.3085   46.1066 C   0  0  0  0  0  0  0  0  0  0  0  0
    3.3197    3.8450   45.9568 C   0  0  0  0  0  0  0  0  0  0  0  0
    2.3906    4.2924   47.0480 C   0  0  0  0  0  0  0  0  0  0  0  0
    4.0845    7.5328   41.8951 N   0  0  0  0  0  0  0  0  0  0  0  0
  1  2  1  0
  2  3  2  0
  3  4  1  0
  4  5  2  0
  5  6  1  0
  5  7  1  0
  7  8  1  0
  8  9  2  0
  8 10  1  0
 10 11  1  0
 11 12  1  1
 11 13  1  0
 13 14  1  0
 14 15  1  0
  7 16  2  0
 16  2  1  0
 15 13  1  0
M  END
>  <inchikey>  (138) 
SXWINLYNTGRHIF-UHFFFAOYSA-N

>  <tags>  (138) 
fragmenstein_placed,CpKRS_FrAncestor_bulkdock_iter2

>  <ref_pdb>  (138) 
x0540b

>  <energy_score>  (138) 
-5.734141

>  <distance_score>  (138) 
0.552656

>  <HIPPO Pose ID>  (138) 
53094

>  <ref_mols>  (138) 
x0456a

>  <smiles>  (138) 
Cc1ccc(C)c(C(=O)NC(C)C2CC2)n1

>  <HIPPO Compound ID>  (138) 
136572

>  <alias>  (138) 
SXWINLYNTGRHIF-UHFFFAOYSA-N-P20

>  <subsites>  (138) 


>  <placement_batch>  (138) 
CpKRS_FrAncestor_bulkdock_iter2

>  <name>  (138) 
SXWINLYNTGRHIF-UHFFFAOYSA-N-P20

$$$$
OVGNXFIVVNPXFB-UHFFFAOYSA-N-P38
     RDKit          3D

 16 16  0  0  0  0  0  0  0  0999 V2000
   -0.5127  -13.0958   25.7264 C   0  0  0  0  0  0  0  0  0  0  0  0
    0.9099  -13.4798   26.0147 C   0  0  0  0  0  0  0  0  0  0  0  0
    1.1803  -14.3584   27.0590 C   0  0  0  0  0  0  0  0  0  0  0  0
    2.4597  -14.8602   27.2444 C   0  0  0  0  0  0  0  0  0  0  0  0
    3.5293  -14.4603   26.4221 C   0  0  0  0  0  0  0  0  0  0  0  0
    4.8177  -15.2028   26.6624 C   0  0  0  0  0  0  0  0  0  0  0  0
    3.3112  -13.4854   25.4077 C   0  0  0  0  0  0  0  0  0  0  0  0
    4.4782  -13.0026   24.5237 C   0  0  0  0  0  0  0  0  0  0  0  0
    5.4730  -13.6016   24.5749 O   0  0  0  0  0  0  0  0  0  0  0  0
    4.1054  -11.7620   23.6990 N   0  0  0  0  0  0  0  0  0  0  0  0
    4.8450  -11.0539   22.6946 C   0  0  0  0  0  0  0  0  0  0  0  0
    4.6888   -9.5365   22.8020 C   0  0  0  0  0  0  0  0  0  0  0  0
    5.3552   -8.8807   21.5989 C   0  0  0  0  0  0  0  0  0  0  0  0
    5.2951   -8.9869   24.0930 C   0  0  0  0  0  0  0  0  0  0  0  0
    1.9802  -13.0243   25.2240 C   0  0  0  0  0  0  0  0  0  0  0  0
    1.6914  -12.1065   24.2366 O   0  0  0  0  0  0  0  0  0  0  0  0
  1  2  1  0
  2  3  2  0
  3  4  1  0
  4  5  2  0
  5  6  1  0
  5  7  1  0
  7  8  1  0
  8  9  2  0
  8 10  1  0
 10 11  1  0
 11 12  1  0
 12 13  1  0
 12 14  1  0
  7 15  2  0
 15 16  1  0
 15  2  1  0
M  END
>  <inchikey>  (139) 
OVGNXFIVVNPXFB-UHFFFAOYSA-N

>  <tags>  (139) 
fragmenstein_placed,CpKRS_FrAncestor_bulkdock_iter2

>  <ref_pdb>  (139) 
x0540b

>  <energy_score>  (139) 
-22.56933

>  <distance_score>  (139) 
0.527466

>  <HIPPO Pose ID>  (139) 
53098

>  <ref_mols>  (139) 
x0555a

>  <smiles>  (139) 
Cc1ccc(C)c(C(=O)NCC(C)C)c1O

>  <HIPPO Compound ID>  (139) 
126286

>  <alias>  (139) 
OVGNXFIVVNPXFB-UHFFFAOYSA-N-P38

>  <subsites>  (139) 


>  <placement_batch>  (139) 
CpKRS_FrAncestor_bulkdock_iter2

>  <name>  (139) 
OVGNXFIVVNPXFB-UHFFFAOYSA-N-P38

$$$$
REXKDJRXTDOROL-UHFFFAOYSA-N-P38
     RDKit          3D

 15 15  0  0  0  0  0  0  0  0999 V2000
    3.2777  -15.9129   28.2571 C   0  0  0  0  0  0  0  0  0  0  0  0
    2.7958  -14.8479   27.3184 C   0  0  0  0  0  0  0  0  0  0  0  0
    1.4844  -14.3898   27.3740 C   0  0  0  0  0  0  0  0  0  0  0  0
    1.0234  -13.4683   26.4332 C   0  0  0  0  0  0  0  0  0  0  0  0
    1.8620  -12.9673   25.4152 C   0  0  0  0  0  0  0  0  0  0  0  0
    1.2035  -12.0898   24.3901 C   0  0  0  0  0  0  0  0  0  0  0  0
    3.2185  -13.3549   25.4028 C   0  0  0  0  0  0  0  0  0  0  0  0
    4.2915  -12.9074   24.4243 C   0  0  0  0  0  0  0  0  0  0  0  0
    5.1273  -13.6807   24.1978 O   0  0  0  0  0  0  0  0  0  0  0  0
    4.0616  -11.5035   23.8627 N   0  0  0  0  0  0  0  0  0  0  0  0
    4.7559  -10.7867   22.8329 C   0  0  0  0  0  0  0  0  0  0  0  0
    4.6726   -9.2719   22.9413 C   0  0  0  0  0  0  0  0  0  0  0  0
    5.3440   -8.7519   24.2103 C   0  0  0  0  0  0  0  0  0  0  0  0
    5.3453   -8.6689   21.7126 C   0  0  0  0  0  0  0  0  0  0  0  0
    3.6444  -14.3296   26.3340 C   0  0  0  0  0  0  0  0  0  0  0  0
  1  2  1  0
  2  3  2  0
  3  4  1  0
  4  5  2  0
  5  6  1  0
  5  7  1  0
  7  8  1  0
  8  9  2  0
  8 10  1  0
 10 11  1  0
 11 12  1  0
 12 13  1  0
 12 14  1  0
  7 15  2  0
 15  2  1  0
M  END
>  <inchikey>  (140) 
REXKDJRXTDOROL-UHFFFAOYSA-N

>  <tags>  (140) 
fragmenstein_placed,CpKRS_FrAncestor_bulkdock_iter2

>  <ref_pdb>  (140) 
x0540b

>  <energy_score>  (140) 
-5.54955

>  <distance_score>  (140) 
0.394656

>  <HIPPO Pose ID>  (140) 
53099

>  <ref_mols>  (140) 
x0555a

>  <smiles>  (140) 
Cc1ccc(C)c(C(=O)NCC(C)C)c1

>  <HIPPO Compound ID>  (140) 
313654

>  <alias>  (140) 
REXKDJRXTDOROL-UHFFFAOYSA-N-P38

>  <subsites>  (140) 


>  <placement_batch>  (140) 
CpKRS_FrAncestor_bulkdock_iter2

>  <name>  (140) 
REXKDJRXTDOROL-UHFFFAOYSA-N-P38

$$$$
IRIPSGZNAVULPQ-UHFFFAOYSA-N-P38
     RDKit          3D

 17 17  0  0  0  0  0  0  0  0999 V2000
   -0.4385  -13.1934   25.8350 C   0  0  0  0  0  0  0  0  0  0  0  0
    0.9817  -13.5877   26.1183 C   0  0  0  0  0  0  0  0  0  0  0  0
    1.2554  -14.4571   27.1677 C   0  0  0  0  0  0  0  0  0  0  0  0
    2.5338  -14.9655   27.3450 C   0  0  0  0  0  0  0  0  0  0  0  0
    3.6020  -14.5782   26.5135 C   0  0  0  0  0  0  0  0  0  0  0  0
    4.8881  -15.3230   26.7531 C   0  0  0  0  0  0  0  0  0  0  0  0
    3.3844  -13.6083   25.4975 C   0  0  0  0  0  0  0  0  0  0  0  0
    4.5598  -13.1121   24.6231 C   0  0  0  0  0  0  0  0  0  0  0  0
    5.5917  -13.6332   24.7403 O   0  0  0  0  0  0  0  0  0  0  0  0
    4.1399  -11.9261   23.7471 N   0  0  0  0  0  0  0  0  0  0  0  0
    4.8757  -11.1897   22.7595 C   0  0  0  0  0  0  0  0  0  0  0  0
    4.7613   -9.6593   22.9254 C   0  0  0  0  0  0  0  0  0  0  0  0
    3.3028   -9.2451   23.1683 C   0  0  0  0  0  0  0  0  0  0  0  0
    5.6064   -9.1542   24.1027 C   0  0  0  0  0  0  0  0  0  0  0  0
    5.2823   -9.0025   21.6383 C   0  0  0  0  0  0  0  0  0  0  0  0
    2.0506  -13.1437   25.3197 C   0  0  0  0  0  0  0  0  0  0  0  0
    1.7526  -12.2194   24.3396 O   0  0  0  0  0  0  0  0  0  0  0  0
  1  2  1  0
  2  3  2  0
  3  4  1  0
  4  5  2  0
  5  6  1  0
  5  7  1  0
  7  8  1  0
  8  9  2  0
  8 10  1  0
 10 11  1  0
 11 12  1  0
 12 13  1  0
 12 14  1  0
 12 15  1  0
  7 16  2  0
 16 17  1  0
 16  2  1  0
M  END
>  <inchikey>  (141) 
IRIPSGZNAVULPQ-UHFFFAOYSA-N

>  <tags>  (141) 
fragmenstein_placed,CpKRS_FrAncestor_bulkdock_iter2

>  <ref_pdb>  (141) 
x0540b

>  <energy_score>  (141) 
-26.064865

>  <distance_score>  (141) 
0.51743

>  <HIPPO Pose ID>  (141) 
53100

>  <ref_mols>  (141) 
x0555a

>  <smiles>  (141) 
Cc1ccc(C)c(C(=O)NCC(C)(C)C)c1O

>  <HIPPO Compound ID>  (141) 
149775

>  <alias>  (141) 
IRIPSGZNAVULPQ-UHFFFAOYSA-N-P38

>  <subsites>  (141) 


>  <placement_batch>  (141) 
CpKRS_FrAncestor_bulkdock_iter2

>  <name>  (141) 
IRIPSGZNAVULPQ-UHFFFAOYSA-N-P38

$$$$
BIGZNDSQOFLGAT-UHFFFAOYSA-N-P38
     RDKit          3D

 18 18  0  0  0  0  0  0  0  0999 V2000
    3.0600  -16.0145   28.2834 C   0  0  0  0  0  0  0  0  0  0  0  0
    2.7415  -14.9114   27.3107 C   0  0  0  0  0  0  0  0  0  0  0  0
    1.4573  -14.3597   27.3289 C   0  0  0  0  0  0  0  0  0  0  0  0
    1.0746  -13.4225   26.3787 C   0  0  0  0  0  0  0  0  0  0  0  0
    1.9711  -13.0012   25.3875 C   0  0  0  0  0  0  0  0  0  0  0  0
    1.4226  -12.0852   24.3329 C   0  0  0  0  0  0  0  0  0  0  0  0
    3.3047  -13.4762   25.4091 C   0  0  0  0  0  0  0  0  0  0  0  0
    4.3058  -12.9859   24.3860 C   0  0  0  0  0  0  0  0  0  0  0  0
    4.8540  -13.7629   23.7313 O   0  0  0  0  0  0  0  0  0  0  0  0
    4.3967  -11.4713   24.3988 N   0  0  0  0  0  0  0  0  0  0  0  0
    5.2554  -10.5827   23.6698 C   0  0  0  0  0  0  0  0  0  0  0  0
    4.6888   -9.1940   23.3962 C   0  0  0  0  0  0  0  0  0  0  0  0
    3.1574   -9.1810   23.3344 C   0  0  0  0  0  0  0  0  0  0  0  0
    5.1818   -8.2283   24.4771 C   0  0  0  0  0  0  0  0  0  0  0  0
    5.2036   -8.7588   22.0972 C   0  0  0  0  0  0  0  0  0  0  0  0
    5.5705   -8.4004   21.0633 N   0  0  0  0  0  0  0  0  0  0  0  0
    3.6896  -14.4559   26.3628 C   0  0  0  0  0  0  0  0  0  0  0  0
    5.0621  -15.0788   26.3666 C   0  0  0  0  0  0  0  0  0  0  0  0
  1  2  1  0
  2  3  2  0
  3  4  1  0
  4  5  2  0
  5  6  1  0
  5  7  1  0
  7  8  1  0
  8  9  2  0
  8 10  1  0
 10 11  1  0
 11 12  1  0
 12 13  1  0
 12 14  1  0
 12 15  1  0
 15 16  3  0
  7 17  2  0
 17 18  1  0
 17  2  1  0
M  END
>  <inchikey>  (142) 
BIGZNDSQOFLGAT-UHFFFAOYSA-N

>  <tags>  (142) 
fragmenstein_placed,CpKRS_FrAncestor_bulkdock_iter2

>  <ref_pdb>  (142) 
x0540b

>  <energy_score>  (142) 
-22.910686

>  <distance_score>  (142) 
0.577444

>  <HIPPO Pose ID>  (142) 
53102

>  <ref_mols>  (142) 
x0555a

>  <smiles>  (142) 
Cc1ccc(C)c(C(=O)NCC(C)(C)C#N)c1C

>  <HIPPO Compound ID>  (142) 
447573

>  <alias>  (142) 
BIGZNDSQOFLGAT-UHFFFAOYSA-N-P38

>  <subsites>  (142) 


>  <placement_batch>  (142) 
CpKRS_FrAncestor_bulkdock_iter2

>  <name>  (142) 
BIGZNDSQOFLGAT-UHFFFAOYSA-N-P38

$$$$
YEGUUQQBBKAENV-UHFFFAOYSA-N-P38
     RDKit          3D

 16 16  0  0  0  0  0  0  0  0999 V2000
    3.6759  -15.8688   27.8228 C   0  0  0  0  0  0  0  0  0  0  0  0
    2.9562  -14.8041   27.0489 C   0  0  0  0  0  0  0  0  0  0  0  0
    1.6190  -14.5270   27.3407 C   0  0  0  0  0  0  0  0  0  0  0  0
    0.9026  -13.6151   26.5679 C   0  0  0  0  0  0  0  0  0  0  0  0
    1.5102  -12.9444   25.4976 C   0  0  0  0  0  0  0  0  0  0  0  0
    0.6566  -12.0493   24.6469 C   0  0  0  0  0  0  0  0  0  0  0  0
    2.8784  -13.1654   25.2454 C   0  0  0  0  0  0  0  0  0  0  0  0
    3.5857  -12.4681   24.1200 C   0  0  0  0  0  0  0  0  0  0  0  0
    4.1379  -13.1054   23.3193 O   0  0  0  0  0  0  0  0  0  0  0  0
    3.3485  -10.9514   24.1958 N   0  0  0  0  0  0  0  0  0  0  0  0
    3.6588   -9.9084   23.2536 C   0  0  0  0  0  0  0  0  0  0  0  0
    5.1473   -9.5647   23.1495 C   0  0  0  0  0  0  0  0  0  0  0  0
    5.4598   -8.9798   21.7796 C   0  0  0  0  0  0  0  0  0  0  0  0
    5.5739   -8.6139   24.2584 C   0  0  0  0  0  0  0  0  0  0  0  0
    5.8868  -10.7001   23.2838 F   0  0  0  0  0  0  0  0  0  0  0  0
    3.5803  -14.1249   25.9914 C   0  0  0  0  0  0  0  0  0  0  0  0
  1  2  1  0
  2  3  2  0
  3  4  1  0
  4  5  2  0
  5  6  1  0
  5  7  1  0
  7  8  1  0
  8  9  2  0
  8 10  1  0
 10 11  1  0
 11 12  1  0
 12 13  1  0
 12 14  1  0
 12 15  1  0
  7 16  2  0
 16  2  1  0
M  END
>  <inchikey>  (143) 
YEGUUQQBBKAENV-UHFFFAOYSA-N

>  <tags>  (143) 
fragmenstein_placed,CpKRS_FrAncestor_bulkdock_iter2

>  <ref_pdb>  (143) 
x0540b

>  <energy_score>  (143) 
-4.909787

>  <distance_score>  (143) 
0.913928

>  <HIPPO Pose ID>  (143) 
53104

>  <ref_mols>  (143) 
x0555a

>  <smiles>  (143) 
Cc1ccc(C)c(C(=O)NCC(C)(C)F)c1

>  <HIPPO Compound ID>  (143) 
122249

>  <alias>  (143) 
YEGUUQQBBKAENV-UHFFFAOYSA-N-P38

>  <subsites>  (143) 


>  <placement_batch>  (143) 
CpKRS_FrAncestor_bulkdock_iter2

>  <name>  (143) 
YEGUUQQBBKAENV-UHFFFAOYSA-N-P38

$$$$
NBWJWYQXOVSYOZ-UHFFFAOYSA-N-P22
     RDKit          3D

 14 14  0  0  0  0  0  0  0  0999 V2000
   24.7052    3.6797   26.2454 C   0  0  0  0  0  0  0  0  0  0  0  0
   24.8888    5.1480   26.0138 C   0  0  0  0  0  0  0  0  0  0  0  0
   26.0034    5.8038   26.5344 C   0  0  0  0  0  0  0  0  0  0  0  0
   26.2317    7.1434   26.2318 C   0  0  0  0  0  0  0  0  0  0  0  0
   25.3484    7.8584   25.4078 C   0  0  0  0  0  0  0  0  0  0  0  0
   25.6974    9.2738   25.0343 C   0  0  0  0  0  0  0  0  0  0  0  0
   24.1912    7.2211   24.9124 C   0  0  0  0  0  0  0  0  0  0  0  0
   23.1818    7.9544   24.0544 C   0  0  0  0  0  0  0  0  0  0  0  0
   22.3389    8.7266   24.8902 O   0  0  0  0  0  0  0  0  0  0  0  0
   21.8264   10.1670   24.3702 S   0  0  0  0  0  0  0  0  0  0  0  0
   20.8207    9.8133   23.0780 N   0  0  0  0  0  0  0  0  0  0  0  0
   20.9454   10.7447   25.3630 O   0  0  0  0  0  0  0  0  0  0  0  0
   22.9190   10.9277   23.8112 O   0  0  0  0  0  0  0  0  0  0  0  0
   23.9780    5.8649   25.2237 C   0  0  0  0  0  0  0  0  0  0  0  0
  1  2  1  0
  2  3  2  0
  3  4  1  0
  4  5  2  0
  5  6  1  0
  5  7  1  0
  7  8  1  0
  8  9  1  0
  9 10  1  0
 10 11  1  0
 10 12  2  0
 10 13  2  0
  7 14  2  0
 14  2  1  0
M  END
>  <inchikey>  (144) 
NBWJWYQXOVSYOZ-UHFFFAOYSA-N

>  <tags>  (144) 
fragmenstein_placed,CpKRS_FrAncestor_bulkdock_iter2

>  <ref_pdb>  (144) 
x0540b

>  <energy_score>  (144) 
-31.229118

>  <distance_score>  (144) 
0.390833

>  <HIPPO Pose ID>  (144) 
53108

>  <ref_mols>  (144) 
x0472b

>  <smiles>  (144) 
Cc1ccc(C)c(COS(N)(=O)=O)c1

>  <HIPPO Compound ID>  (144) 
447575

>  <alias>  (144) 
NBWJWYQXOVSYOZ-UHFFFAOYSA-N-P22

>  <subsites>  (144) 


>  <placement_batch>  (144) 
CpKRS_FrAncestor_bulkdock_iter2

>  <name>  (144) 
NBWJWYQXOVSYOZ-UHFFFAOYSA-N-P22

$$$$
FAEYNAIRYPJXKE-UHFFFAOYSA-N-P23
     RDKit          3D

 14 14  0  0  0  0  0  0  0  0999 V2000
   26.8644    8.5830   25.8851 C   0  0  0  0  0  0  0  0  0  0  0  0
   25.6883    7.6535   25.8353 C   0  0  0  0  0  0  0  0  0  0  0  0
   25.8669    6.2849   26.0661 C   0  0  0  0  0  0  0  0  0  0  0  0
   24.7912    5.3991   25.9630 C   0  0  0  0  0  0  0  0  0  0  0  0
   24.9849    3.9252   26.1611 C   0  0  0  0  0  0  0  0  0  0  0  0
   23.5328    5.8947   25.6054 C   0  0  0  0  0  0  0  0  0  0  0  0
   23.3207    7.2628   25.3905 C   0  0  0  0  0  0  0  0  0  0  0  0
   21.9263    7.7760   25.1224 C   0  0  0  0  0  0  0  0  0  0  0  0
   21.8872    8.6619   24.0240 O   0  0  0  0  0  0  0  0  0  0  0  0
   21.5852   10.2304   24.2603 S   0  0  0  0  0  0  0  0  0  0  0  0
   20.4841   10.5618   23.0408 N   0  0  0  0  0  0  0  0  0  0  0  0
   20.8362   10.4208   25.4808 O   0  0  0  0  0  0  0  0  0  0  0  0
   22.7788   10.9823   23.9642 O   0  0  0  0  0  0  0  0  0  0  0  0
   24.4155    8.1305   25.4942 C   0  0  0  0  0  0  0  0  0  0  0  0
  1  2  1  0
  2  3  2  0
  3  4  1  0
  4  5  1  0
  4  6  2  0
  6  7  1  0
  7  8  1  0
  8  9  1  0
  9 10  1  0
 10 11  1  0
 10 12  2  0
 10 13  2  0
  7 14  2  0
 14  2  1  0
M  END
>  <inchikey>  (145) 
FAEYNAIRYPJXKE-UHFFFAOYSA-N

>  <tags>  (145) 
fragmenstein_placed,CpKRS_FrAncestor_bulkdock_iter2

>  <ref_pdb>  (145) 
x0540b

>  <energy_score>  (145) 
-33.114098

>  <distance_score>  (145) 
0.310748

>  <HIPPO Pose ID>  (145) 
53112

>  <ref_mols>  (145) 
x0472c

>  <smiles>  (145) 
Cc1cc(C)cc(COS(N)(=O)=O)c1

>  <HIPPO Compound ID>  (145) 
447576

>  <alias>  (145) 
FAEYNAIRYPJXKE-UHFFFAOYSA-N-P23

>  <subsites>  (145) 


>  <placement_batch>  (145) 
CpKRS_FrAncestor_bulkdock_iter2

>  <name>  (145) 
FAEYNAIRYPJXKE-UHFFFAOYSA-N-P23

$$$$
RRNRBLJRUHWIIA-UHFFFAOYSA-N-P38
     RDKit          3D

 17 17  0  0  0  0  0  0  0  0999 V2000
   -0.3904  -13.0664   25.7353 C   0  0  0  0  0  0  0  0  0  0  0  0
    1.0096  -13.5113   26.0441 C   0  0  0  0  0  0  0  0  0  0  0  0
    1.2311  -14.4062   27.0845 C   0  0  0  0  0  0  0  0  0  0  0  0
    2.4923  -14.9458   27.2929 C   0  0  0  0  0  0  0  0  0  0  0  0
    3.5937  -14.5660   26.5028 C   0  0  0  0  0  0  0  0  0  0  0  0
    4.8595  -15.3349   26.7732 C   0  0  0  0  0  0  0  0  0  0  0  0
    3.4262  -13.5774   25.4955 C   0  0  0  0  0  0  0  0  0  0  0  0
    4.6294  -13.0901   24.6637 C   0  0  0  0  0  0  0  0  0  0  0  0
    5.6269  -13.6760   24.7566 O   0  0  0  0  0  0  0  0  0  0  0  0
    4.2899  -11.8371   23.8647 N   0  0  0  0  0  0  0  0  0  0  0  0
    5.0525  -11.1085   22.9605 O   0  0  0  0  0  0  0  0  0  0  0  0
    4.8112   -9.6911   23.0226 C   0  0  0  0  0  0  0  0  0  0  0  0
    3.3281   -9.3285   23.1625 C   0  0  0  0  0  0  0  0  0  0  0  0
    5.3345   -9.1387   21.6911 C   0  0  0  0  0  0  0  0  0  0  0  0
    5.6140   -9.0712   24.1669 C   0  0  0  0  0  0  0  0  0  0  0  0
    2.1111  -13.0837   25.2833 C   0  0  0  0  0  0  0  0  0  0  0  0
    1.8685  -12.1446   24.3045 O   0  0  0  0  0  0  0  0  0  0  0  0
  1  2  1  0
  2  3  2  0
  3  4  1  0
  4  5  2  0
  5  6  1  0
  5  7  1  0
  7  8  1  0
  8  9  2  0
  8 10  1  0
 10 11  1  0
 11 12  1  0
 12 13  1  0
 12 14  1  0
 12 15  1  0
  7 16  2  0
 16 17  1  0
 16  2  1  0
M  END
>  <inchikey>  (146) 
RRNRBLJRUHWIIA-UHFFFAOYSA-N

>  <tags>  (146) 
fragmenstein_placed,CpKRS_FrAncestor_bulkdock_iter2

>  <ref_pdb>  (146) 
x0540b

>  <energy_score>  (146) 
-39.857098

>  <distance_score>  (146) 
0.450307

>  <HIPPO Pose ID>  (146) 
53113

>  <ref_mols>  (146) 
x0555a

>  <smiles>  (146) 
Cc1ccc(C)c(C(=O)NOC(C)(C)C)c1O

>  <HIPPO Compound ID>  (146) 
150592

>  <alias>  (146) 
RRNRBLJRUHWIIA-UHFFFAOYSA-N-P38

>  <subsites>  (146) 


>  <placement_batch>  (146) 
CpKRS_FrAncestor_bulkdock_iter2

>  <name>  (146) 
RRNRBLJRUHWIIA-UHFFFAOYSA-N-P38

$$$$
SYPUAXRYOFTXJU-UHFFFAOYSA-N-P38
     RDKit          3D

 16 16  0  0  0  0  0  0  0  0999 V2000
   -0.5383  -13.1326   25.7228 C   0  0  0  0  0  0  0  0  0  0  0  0
    0.9144  -13.4320   25.9467 C   0  0  0  0  0  0  0  0  0  0  0  0
    1.2860  -14.3373   26.9452 C   0  0  0  0  0  0  0  0  0  0  0  0
    2.6037  -14.7715   27.0612 C   0  0  0  0  0  0  0  0  0  0  0  0
    3.6010  -14.2815   26.2054 C   0  0  0  0  0  0  0  0  0  0  0  0
    4.9585  -14.9093   26.3158 C   0  0  0  0  0  0  0  0  0  0  0  0
    3.2585  -13.2978   25.2548 C   0  0  0  0  0  0  0  0  0  0  0  0
    4.2633  -12.7638   24.2994 C   0  0  0  0  0  0  0  0  0  0  0  0
    5.0618  -13.4458   23.6780 O   0  0  0  0  0  0  0  0  0  0  0  0
    4.1694  -11.4082   24.1983 O   0  0  0  0  0  0  0  0  0  0  0  0
    4.9269  -10.8915   23.1000 C   0  0  0  0  0  0  0  0  0  0  0  0
    4.6968   -9.3871   22.9638 C   0  0  0  0  0  0  0  0  0  0  0  0
    5.3585   -8.8848   21.6853 C   0  0  0  0  0  0  0  0  0  0  0  0
    5.2457   -8.6351   24.1762 C   0  0  0  0  0  0  0  0  0  0  0  0
    1.9149  -12.8946   25.1246 C   0  0  0  0  0  0  0  0  0  0  0  0
    1.5860  -12.0023   24.1351 O   0  0  0  0  0  0  0  0  0  0  0  0
  1  2  1  0
  2  3  2  0
  3  4  1  0
  4  5  2  0
  5  6  1  0
  5  7  1  0
  7  8  1  0
  8  9  2  0
  8 10  1  0
 10 11  1  0
 11 12  1  0
 12 13  1  0
 12 14  1  0
  7 15  2  0
 15 16  1  0
 15  2  1  0
M  END
>  <inchikey>  (147) 
SYPUAXRYOFTXJU-UHFFFAOYSA-N

>  <tags>  (147) 
fragmenstein_placed,CpKRS_FrAncestor_bulkdock_iter2

>  <ref_pdb>  (147) 
x0540b

>  <energy_score>  (147) 
-33.325985

>  <distance_score>  (147) 
0.558346

>  <HIPPO Pose ID>  (147) 
53114

>  <ref_mols>  (147) 
x0555a

>  <smiles>  (147) 
Cc1ccc(C)c(C(=O)OCC(C)C)c1O

>  <HIPPO Compound ID>  (147) 
138985

>  <alias>  (147) 
SYPUAXRYOFTXJU-UHFFFAOYSA-N-P38

>  <subsites>  (147) 


>  <placement_batch>  (147) 
CpKRS_FrAncestor_bulkdock_iter2

>  <name>  (147) 
SYPUAXRYOFTXJU-UHFFFAOYSA-N-P38

$$$$
COLKXUYGKCHQNK-UHFFFAOYSA-N-P60
     RDKit          3D

 16 17  0  0  0  0  0  0  0  0999 V2000
   -3.6944  -25.4509   27.0713 C   0  0  0  0  0  0  0  0  0  0  0  0
   -2.8242  -25.6444   25.8666 C   0  0  0  0  0  0  0  0  0  0  0  0
   -1.9963  -24.6100   25.4267 C   0  0  0  0  0  0  0  0  0  0  0  0
   -1.1715  -24.7893   24.3178 C   0  0  0  0  0  0  0  0  0  0  0  0
   -1.1395  -26.0114   23.6510 C   0  0  0  0  0  0  0  0  0  0  0  0
   -1.9784  -27.0596   24.0574 C   0  0  0  0  0  0  0  0  0  0  0  0
   -2.0134  -28.3878   23.2976 C   0  0  1  0  0  0  0  0  0  0  0  0
   -2.3109  -28.1233   21.8527 C   0  0  0  0  0  0  0  0  0  0  0  0
   -2.5744  -27.9494   20.7336 N   0  0  0  0  0  0  0  0  0  0  0  0
   -0.7847  -29.2086   23.5231 N   0  0  0  0  0  0  0  0  0  0  0  0
   -0.8171  -30.4493   22.6987 C   0  0  0  0  0  0  0  0  0  0  0  0
   -0.3226  -31.7035   23.4351 C   0  0  0  0  0  0  0  0  0  0  0  0
   -1.1316  -31.9695   24.5884 O   0  0  0  0  0  0  0  0  0  0  0  0
   -1.3717  -30.8058   25.3881 C   0  0  0  0  0  0  0  0  0  0  0  0
   -0.5829  -29.5638   24.9430 C   0  0  0  0  0  0  0  0  0  0  0  0
   -2.8104  -26.8640   25.1779 C   0  0  0  0  0  0  0  0  0  0  0  0
  1  2  1  0
  2  3  2  0
  3  4  1  0
  4  5  2  0
  5  6  1  0
  6  7  1  0
  7  8  1  6
  8  9  3  0
  7 10  1  0
 10 11  1  0
 11 12  1  0
 12 13  1  0
 13 14  1  0
 14 15  1  0
  6 16  2  0
 16  2  1  0
 15 10  1  0
M  END
>  <inchikey>  (148) 
COLKXUYGKCHQNK-UHFFFAOYSA-N

>  <tags>  (148) 
fragmenstein_placed,CpKRS_FrAncestor_bulkdock_iter2

>  <ref_pdb>  (148) 
x0540b

>  <energy_score>  (148) 
-23.795109

>  <distance_score>  (148) 
0.437494

>  <HIPPO Pose ID>  (148) 
53122

>  <ref_mols>  (148) 
x0675b

>  <smiles>  (148) 
Cc1cccc(C(C#N)N2CCOCC2)c1

>  <HIPPO Compound ID>  (148) 
447577

>  <alias>  (148) 
COLKXUYGKCHQNK-UHFFFAOYSA-N-P60

>  <subsites>  (148) 


>  <placement_batch>  (148) 
CpKRS_FrAncestor_bulkdock_iter2

>  <name>  (148) 
COLKXUYGKCHQNK-UHFFFAOYSA-N-P60

$$$$
DBERRAOLIRGTCP-MRVPVSSYSA-N-P11
     RDKit          3D

 16 17  0  0  0  0  0  0  0  0999 V2000
    5.6847   -9.7044   24.3639 C   0  0  0  0  0  0  0  0  0  0  0  0
    4.3647   -9.5571   23.5951 C   0  0  0  0  0  0  0  0  0  0  0  0
    3.3197   -8.8877   24.4820 C   0  0  0  0  0  0  0  0  0  0  0  0
    4.6579   -8.8003   22.2914 C   0  0  0  0  0  0  0  0  0  0  0  0
    5.2315   -9.8738   21.3557 C   0  0  0  0  0  0  0  0  0  0  0  0
    4.8218  -11.2337   21.9400 C   0  0  0  0  0  0  0  0  0  0  0  0
    3.8069  -10.8723   23.0106 C   0  0  1  0  0  0  0  0  0  0  0  0
    3.4570  -11.8717   23.9711 N   0  0  0  0  0  0  0  0  0  0  0  0
    4.3116  -12.9613   24.6341 C   0  0  0  0  0  0  0  0  0  0  0  0
    5.4550  -13.1720   24.5626 O   0  0  0  0  0  0  0  0  0  0  0  0
    3.4289  -13.7272   25.5429 C   0  0  0  0  0  0  0  0  0  0  0  0
    3.8331  -14.7275   26.4652 C   0  0  0  0  0  0  0  0  0  0  0  0
    2.6975  -15.0429   27.1557 C   0  0  0  0  0  0  0  0  0  0  0  0
    2.5643  -16.2082   28.6318 Br  0  0  0  0  0  0  0  0  0  0  0  0
    1.6930  -14.3167   26.6051 N   0  0  0  0  0  0  0  0  0  0  0  0
    2.1003  -13.4633   25.6479 N   0  0  0  0  0  0  0  0  0  0  0  0
  1  2  1  0
  2  3  1  0
  2  4  1  0
  4  5  1  0
  5  6  1  0
  6  7  1  0
  7  8  1  1
  8  9  1  0
  9 10  2  0
  9 11  1  0
 11 12  1  0
 12 13  2  0
 13 14  1  0
 13 15  1  0
 15 16  1  0
  7  2  1  0
 16 11  2  0
M  END
>  <inchikey>  (149) 
DBERRAOLIRGTCP-UHFFFAOYSA-N

>  <tags>  (149) 
fragmenstein_placed,CpKRS_FrAncestor_bulkdock_iter2

>  <ref_pdb>  (149) 
x0540b

>  <energy_score>  (149) 
-6.33125

>  <distance_score>  (149) 
0.583905

>  <HIPPO Pose ID>  (149) 
53123

>  <ref_mols>  (149) 
x0421a

>  <smiles>  (149) 
CC1(C)CCC[C@H]1NC(=O)c1cc(Br)[nH]n1

>  <HIPPO Compound ID>  (149) 
127857

>  <alias>  (149) 
DBERRAOLIRGTCP-MRVPVSSYSA-N-P11

>  <subsites>  (149) 


>  <placement_batch>  (149) 
CpKRS_FrAncestor_bulkdock_iter2

>  <name>  (149) 
DBERRAOLIRGTCP-MRVPVSSYSA-N-P11

$$$$
RXPRIOTYVSRCGT-QMMMGPOBSA-N-P13
     RDKit          3D

 16 17  0  0  0  0  0  0  0  0999 V2000
    5.4658   -8.6712   24.8263 C   0  0  0  0  0  0  0  0  0  0  0  0
    4.5315   -9.4076   23.8527 C   0  0  0  0  0  0  0  0  0  0  0  0
    3.0860   -9.2557   24.3488 C   0  0  0  0  0  0  0  0  0  0  0  0
    4.6773   -8.7695   22.4490 C   0  0  0  0  0  0  0  0  0  0  0  0
    5.4067   -9.7892   21.5939 C   0  0  0  0  0  0  0  0  0  0  0  0
    4.9586  -11.1222   22.1529 C   0  0  0  0  0  0  0  0  0  0  0  0
    4.9743  -10.8917   23.6585 C   0  0  2  0  0  0  0  0  0  0  0  0
    4.2059  -11.9026   24.3344 N   0  0  0  0  0  0  0  0  0  0  0  0
    4.6233  -13.2784   24.8747 C   0  0  0  0  0  0  0  0  0  0  0  0
    5.6362  -13.8462   24.7916 O   0  0  0  0  0  0  0  0  0  0  0  0
    3.5040  -13.8181   25.6839 C   0  0  0  0  0  0  0  0  0  0  0  0
    3.5922  -14.8684   26.6409 C   0  0  0  0  0  0  0  0  0  0  0  0
    2.3917  -14.8298   27.2851 C   0  0  0  0  0  0  0  0  0  0  0  0
    1.8102  -15.5866   28.6834 Cl  0  0  0  0  0  0  0  0  0  0  0  0
    1.6193  -13.9103   26.6591 N   0  0  0  0  0  0  0  0  0  0  0  0
    2.2657  -13.2623   25.6703 N   0  0  0  0  0  0  0  0  0  0  0  0
  1  2  1  0
  2  3  1  0
  2  4  1  0
  4  5  1  0
  5  6  1  0
  6  7  1  0
  7  8  1  1
  8  9  1  0
  9 10  2  0
  9 11  1  0
 11 12  1  0
 12 13  2  0
 13 14  1  0
 13 15  1  0
 15 16  1  0
  7  2  1  0
 16 11  2  0
M  END
>  <inchikey>  (150) 
RXPRIOTYVSRCGT-UHFFFAOYSA-N

>  <tags>  (150) 
fragmenstein_placed,CpKRS_FrAncestor_bulkdock_iter2

>  <ref_pdb>  (150) 
x0540b

>  <energy_score>  (150) 
-12.996137

>  <distance_score>  (150) 
0.459515

>  <HIPPO Pose ID>  (150) 
53129

>  <ref_mols>  (150) 
x0421c

>  <smiles>  (150) 
CC1(C)CCC[C@@H]1NC(=O)c1cc(Cl)[nH]n1

>  <HIPPO Compound ID>  (150) 
127860

>  <alias>  (150) 
RXPRIOTYVSRCGT-QMMMGPOBSA-N-P13

>  <subsites>  (150) 


>  <placement_batch>  (150) 
CpKRS_FrAncestor_bulkdock_iter2

>  <name>  (150) 
RXPRIOTYVSRCGT-QMMMGPOBSA-N-P13

$$$$
RKLFPLRRCLSGLD-LBPRGKRZSA-N-P12
     RDKit          3D

 19 20  0  0  0  0  0  0  0  0999 V2000
    6.0144   -8.8144   24.9306 C   0  0  0  0  0  0  0  0  0  0  0  0
    5.0298   -9.2432   23.8436 C   0  0  0  0  0  0  0  0  0  0  0  0
    3.6183   -8.8624   24.2992 C   0  0  0  0  0  0  0  0  0  0  0  0
    5.4327   -8.5429   22.5397 C   0  0  0  0  0  0  0  0  0  0  0  0
    4.7207   -9.3333   21.4683 C   0  0  0  0  0  0  0  0  0  0  0  0
    4.7447  -10.7765   21.9438 C   0  0  0  0  0  0  0  0  0  0  0  0
    5.1207  -10.7304   23.4274 C   0  0  2  0  0  0  0  0  0  0  0  0
    4.2988  -11.6414   24.1616 N   0  0  0  0  0  0  0  0  0  0  0  0
    4.6529  -12.9571   24.8675 C   0  0  0  0  0  0  0  0  0  0  0  0
    5.6843  -13.4724   25.0307 O   0  0  0  0  0  0  0  0  0  0  0  0
    3.3980  -13.4829   25.4371 C   0  0  0  0  0  0  0  0  0  0  0  0
    3.2435  -14.4457   26.4569 C   0  0  0  0  0  0  0  0  0  0  0  0
    1.8890  -14.5331   26.6617 C   0  0  0  0  0  0  0  0  0  0  0  0
    1.2990  -13.6944   25.7510 N   0  0  0  0  0  0  0  0  0  0  0  0
   -0.1147  -13.6984   25.3361 C   0  0  0  0  0  0  0  0  0  0  0  0
   -0.5222  -12.4483   24.5231 C   0  0  0  0  0  0  0  0  0  0  0  0
   -1.0544  -13.7801   26.5476 C   0  0  0  0  0  0  0  0  0  0  0  0
   -0.3120  -14.9072   24.3996 C   0  0  0  0  0  0  0  0  0  0  0  0
    2.2026  -13.0136   25.0196 N   0  0  0  0  0  0  0  0  0  0  0  0
  1  2  1  0
  2  3  1  0
  2  4  1  0
  4  5  1  0
  5  6  1  0
  6  7  1  0
  7  8  1  1
  8  9  1  0
  9 10  2  0
  9 11  1  0
 11 12  1  0
 12 13  2  0
 13 14  1  0
 14 15  1  0
 15 16  1  0
 15 17  1  0
 15 18  1  0
 14 19  1  0
  7  2  1  0
 19 11  2  0
M  END
>  <inchikey>  (151) 
RKLFPLRRCLSGLD-UHFFFAOYSA-N

>  <tags>  (151) 
fragmenstein_placed,CpKRS_FrAncestor_bulkdock_iter2

>  <ref_pdb>  (151) 
x0540b

>  <energy_score>  (151) 
-29.041964

>  <distance_score>  (151) 
0.556806

>  <HIPPO Pose ID>  (151) 
53136

>  <ref_mols>  (151) 
x0421b

>  <smiles>  (151) 
CC1(C)CCC[C@@H]1NC(=O)c1ccn(C(C)(C)C)n1

>  <HIPPO Compound ID>  (151) 
447535

>  <alias>  (151) 
RKLFPLRRCLSGLD-LBPRGKRZSA-N-P12

>  <subsites>  (151) 


>  <placement_batch>  (151) 
CpKRS_FrAncestor_bulkdock_iter2

>  <name>  (151) 
RKLFPLRRCLSGLD-LBPRGKRZSA-N-P12

$$$$
BYJMEMIRRSNASV-SNVBAGLBSA-N-P12
     RDKit          3D

 20 21  0  0  0  0  0  0  0  0999 V2000
    3.0790   -9.5547   22.6267 C   0  0  0  0  0  0  0  0  0  0  0  0
    4.5516   -9.9957   22.5652 C   0  0  0  0  0  0  0  0  0  0  0  0
    4.7594  -11.0842   21.5249 C   0  0  0  0  0  0  0  0  0  0  0  0
    5.4649   -8.7970   22.2662 C   0  0  0  0  0  0  0  0  0  0  0  0
    5.7193   -8.1287   23.6123 C   0  0  0  0  0  0  0  0  0  0  0  0
    5.2663   -9.1216   24.6808 C   0  0  0  0  0  0  0  0  0  0  0  0
    5.0646  -10.4399   23.9334 C   0  0  1  0  0  0  0  0  0  0  0  0
    4.2205  -11.4077   24.5755 N   0  0  0  0  0  0  0  0  0  0  0  0
    4.4616  -12.8952   24.8849 C   0  0  0  0  0  0  0  0  0  0  0  0
    5.4120  -13.5528   24.7375 O   0  0  0  0  0  0  0  0  0  0  0  0
    3.2573  -13.4461   25.5436 C   0  0  0  0  0  0  0  0  0  0  0  0
    3.2551  -14.4291   26.5634 C   0  0  0  0  0  0  0  0  0  0  0  0
    1.9437  -14.5590   26.9389 C   0  0  0  0  0  0  0  0  0  0  0  0
    1.2237  -13.7495   26.1024 N   0  0  0  0  0  0  0  0  0  0  0  0
   -0.1896  -13.8984   25.8552 C   0  0  0  0  0  0  0  0  0  0  0  0
   -1.0408  -12.6657   25.9504 C   0  0  0  0  0  0  0  0  0  0  0  0
   -2.3319  -13.0334   25.6876 F   0  0  0  0  0  0  0  0  0  0  0  0
   -1.0615  -12.1428   27.1913 F   0  0  0  0  0  0  0  0  0  0  0  0
   -0.7346  -11.7224   25.0408 F   0  0  0  0  0  0  0  0  0  0  0  0
    2.0016  -13.0338   25.2584 N   0  0  0  0  0  0  0  0  0  0  0  0
  1  2  1  0
  2  3  1  0
  2  4  1  0
  4  5  1  0
  5  6  1  0
  6  7  1  0
  7  8  1  1
  8  9  1  0
  9 10  2  0
  9 11  1  0
 11 12  1  0
 12 13  2  0
 13 14  1  0
 14 15  1  0
 15 16  1  0
 16 17  1  0
 16 18  1  0
 16 19  1  0
 14 20  1  0
  7  2  1  0
 20 11  2  0
M  END
>  <inchikey>  (152) 
BYJMEMIRRSNASV-UHFFFAOYSA-N

>  <tags>  (152) 
fragmenstein_placed,CpKRS_FrAncestor_bulkdock_iter2

>  <ref_pdb>  (152) 
x0540b

>  <energy_score>  (152) 
-9.954985

>  <distance_score>  (152) 
0.562933

>  <HIPPO Pose ID>  (152) 
53148

>  <ref_mols>  (152) 
x0421b

>  <smiles>  (152) 
CC1(C)CCC[C@H]1NC(=O)c1ccn(CC(F)(F)F)n1

>  <HIPPO Compound ID>  (152) 
294308

>  <alias>  (152) 
BYJMEMIRRSNASV-SNVBAGLBSA-N-P12

>  <subsites>  (152) 


>  <placement_batch>  (152) 
CpKRS_FrAncestor_bulkdock_iter2

>  <name>  (152) 
BYJMEMIRRSNASV-SNVBAGLBSA-N-P12

$$$$
GIJJKLNOMRGLTG-VIFPVBQESA-N-P13
     RDKit          3D

 19 20  0  0  0  0  0  0  0  0999 V2000
    3.1044   -9.2814   24.3339 C   0  0  0  0  0  0  0  0  0  0  0  0
    4.5599   -9.3739   23.8514 C   0  0  0  0  0  0  0  0  0  0  0  0
    5.4589   -8.6250   24.8482 C   0  0  0  0  0  0  0  0  0  0  0  0
    4.6980   -8.7066   22.4609 C   0  0  0  0  0  0  0  0  0  0  0  0
    5.4691   -9.6847   21.5950 C   0  0  0  0  0  0  0  0  0  0  0  0
    5.0628  -11.0402   22.1260 C   0  0  0  0  0  0  0  0  0  0  0  0
    5.0570  -10.8367   23.6354 C   0  0  2  0  0  0  0  0  0  0  0  0
    4.3032  -11.8844   24.2653 N   0  0  0  0  0  0  0  0  0  0  0  0
    4.7681  -13.1962   24.9147 C   0  0  0  0  0  0  0  0  0  0  0  0
    5.8279  -13.6742   24.9754 O   0  0  0  0  0  0  0  0  0  0  0  0
    3.5956  -13.8258   25.5630 C   0  0  0  0  0  0  0  0  0  0  0  0
    3.5948  -14.9508   26.4244 C   0  0  0  0  0  0  0  0  0  0  0  0
    2.2886  -15.1140   26.8156 C   0  0  0  0  0  0  0  0  0  0  0  0
    1.5704  -14.1379   26.1759 N   0  0  0  0  0  0  0  0  0  0  0  0
    0.1150  -13.9654   26.2259 C   0  0  0  0  0  0  0  0  0  0  0  0
   -0.2939  -12.7271   25.8452 F   0  0  0  0  0  0  0  0  0  0  0  0
   -0.3851  -14.1544   27.4809 F   0  0  0  0  0  0  0  0  0  0  0  0
   -0.5279  -14.8662   25.4299 F   0  0  0  0  0  0  0  0  0  0  0  0
    2.3475  -13.3302   25.4094 N   0  0  0  0  0  0  0  0  0  0  0  0
  1  2  1  0
  2  3  1  0
  2  4  1  0
  4  5  1  0
  5  6  1  0
  6  7  1  0
  7  8  1  1
  8  9  1  0
  9 10  2  0
  9 11  1  0
 11 12  1  0
 12 13  2  0
 13 14  1  0
 14 15  1  0
 15 16  1  0
 15 17  1  0
 15 18  1  0
 14 19  1  0
  7  2  1  0
 19 11  2  0
M  END
>  <inchikey>  (153) 
GIJJKLNOMRGLTG-UHFFFAOYSA-N

>  <tags>  (153) 
fragmenstein_placed,CpKRS_FrAncestor_bulkdock_iter2

>  <ref_pdb>  (153) 
x0540b

>  <energy_score>  (153) 
-43.771395

>  <distance_score>  (153) 
0.402902

>  <HIPPO Pose ID>  (153) 
53157

>  <ref_mols>  (153) 
x0421c

>  <smiles>  (153) 
CC1(C)CCC[C@@H]1NC(=O)c1ccn(C(F)(F)F)n1

>  <HIPPO Compound ID>  (153) 
447537

>  <alias>  (153) 
GIJJKLNOMRGLTG-VIFPVBQESA-N-P13

>  <subsites>  (153) 


>  <placement_batch>  (153) 
CpKRS_FrAncestor_bulkdock_iter2

>  <name>  (153) 
GIJJKLNOMRGLTG-VIFPVBQESA-N-P13

$$$$
OUIGCISUJNTVMH-VIFPVBQESA-N-P12
     RDKit          3D

 18 19  0  0  0  0  0  0  0  0999 V2000
    5.9590   -8.8456   24.9328 C   0  0  0  0  0  0  0  0  0  0  0  0
    4.9835   -9.3296   23.8590 C   0  0  0  0  0  0  0  0  0  0  0  0
    3.5693   -8.9175   24.2736 C   0  0  0  0  0  0  0  0  0  0  0  0
    5.4088   -8.7027   22.5232 C   0  0  0  0  0  0  0  0  0  0  0  0
    4.7122   -9.5509   21.4850 C   0  0  0  0  0  0  0  0  0  0  0  0
    4.6968  -10.9653   22.0460 C   0  0  0  0  0  0  0  0  0  0  0  0
    5.0683  -10.8385   23.5267 C   0  0  2  0  0  0  0  0  0  0  0  0
    4.2721  -11.7252   24.3260 N   0  0  0  0  0  0  0  0  0  0  0  0
    4.6002  -13.1075   24.9118 C   0  0  0  0  0  0  0  0  0  0  0  0
    5.5948  -13.7140   24.9045 O   0  0  0  0  0  0  0  0  0  0  0  0
    3.3907  -13.6069   25.6033 C   0  0  0  0  0  0  0  0  0  0  0  0
    3.3329  -14.6278   26.5834 C   0  0  0  0  0  0  0  0  0  0  0  0
    2.0321  -14.6393   27.0202 C   0  0  0  0  0  0  0  0  0  0  0  0
    1.3644  -13.6988   26.2771 N   0  0  0  0  0  0  0  0  0  0  0  0
   -0.0826  -13.4688   26.3200 C   0  0  0  0  0  0  0  0  0  0  0  0
   -0.4873  -12.9002   27.4843 F   0  0  0  0  0  0  0  0  0  0  0  0
   -0.5410  -12.6933   25.3008 F   0  0  0  0  0  0  0  0  0  0  0  0
    2.1699  -13.0720   25.3801 N   0  0  0  0  0  0  0  0  0  0  0  0
  1  2  1  0
  2  3  1  0
  2  4  1  0
  4  5  1  0
  5  6  1  0
  6  7  1  0
  7  8  1  1
  8  9  1  0
  9 10  2  0
  9 11  1  0
 11 12  1  0
 12 13  2  0
 13 14  1  0
 14 15  1  0
 15 16  1  0
 15 17  1  0
 14 18  1  0
  7  2  1  0
 18 11  2  0
M  END
>  <inchikey>  (154) 
OUIGCISUJNTVMH-UHFFFAOYSA-N

>  <tags>  (154) 
fragmenstein_placed,CpKRS_FrAncestor_bulkdock_iter2

>  <ref_pdb>  (154) 
x0540b

>  <energy_score>  (154) 
-18.540347

>  <distance_score>  (154) 
0.36631

>  <HIPPO Pose ID>  (154) 
53160

>  <ref_mols>  (154) 
x0421b

>  <smiles>  (154) 
CC1(C)CCC[C@@H]1NC(=O)c1ccn(C(F)F)n1

>  <HIPPO Compound ID>  (154) 
447538

>  <alias>  (154) 
OUIGCISUJNTVMH-VIFPVBQESA-N-P12

>  <subsites>  (154) 


>  <placement_batch>  (154) 
CpKRS_FrAncestor_bulkdock_iter2

>  <name>  (154) 
OUIGCISUJNTVMH-VIFPVBQESA-N-P12

$$$$
DPMBRJRYYJPZBM-QMMMGPOBSA-N-P12
     RDKit          3D

 16 17  0  0  0  0  0  0  0  0999 V2000
    3.5908   -8.9204   24.2742 C   0  0  0  0  0  0  0  0  0  0  0  0
    5.0034   -9.3392   23.8604 C   0  0  0  0  0  0  0  0  0  0  0  0
    5.9810   -8.8549   24.9317 C   0  0  0  0  0  0  0  0  0  0  0  0
    5.4251   -8.7121   22.5230 C   0  0  0  0  0  0  0  0  0  0  0  0
    4.7226   -9.5566   21.4854 C   0  0  0  0  0  0  0  0  0  0  0  0
    4.6876  -10.9691   22.0510 C   0  0  0  0  0  0  0  0  0  0  0  0
    5.0905  -10.8479   23.5243 C   0  0  2  0  0  0  0  0  0  0  0  0
    4.3175  -11.7478   24.3312 N   0  0  0  0  0  0  0  0  0  0  0  0
    4.6444  -13.1620   24.8462 C   0  0  0  0  0  0  0  0  0  0  0  0
    5.6229  -13.7892   24.7615 O   0  0  0  0  0  0  0  0  0  0  0  0
    3.4767  -13.6316   25.6119 C   0  0  0  0  0  0  0  0  0  0  0  0
    2.2919  -12.9758   25.5600 N   0  0  0  0  0  0  0  0  0  0  0  0
    1.5453  -13.5820   26.5051 N   0  0  0  0  0  0  0  0  0  0  0  0
    2.1555  -14.6594   27.0784 C   0  0  0  0  0  0  0  0  0  0  0  0
    3.4019  -14.7045   26.5171 C   0  0  0  0  0  0  0  0  0  0  0  0
    4.3749  -15.5615   26.8422 F   0  0  0  0  0  0  0  0  0  0  0  0
  1  2  1  0
  2  3  1  0
  2  4  1  0
  4  5  1  0
  5  6  1  0
  6  7  1  0
  7  8  1  1
  8  9  1  0
  9 10  2  0
  9 11  1  0
 11 12  2  0
 12 13  1  0
 13 14  1  0
 14 15  2  0
 15 16  1  0
  7  2  1  0
 15 11  1  0
M  END
>  <inchikey>  (155) 
DPMBRJRYYJPZBM-UHFFFAOYSA-N

>  <tags>  (155) 
fragmenstein_placed,CpKRS_FrAncestor_bulkdock_iter2

>  <ref_pdb>  (155) 
x0540b

>  <energy_score>  (155) 
-20.040279

>  <distance_score>  (155) 
0.430504

>  <HIPPO Pose ID>  (155) 
53175

>  <ref_mols>  (155) 
x0421b

>  <smiles>  (155) 
CC1(C)CCC[C@@H]1NC(=O)c1n[nH]cc1F

>  <HIPPO Compound ID>  (155) 
127859

>  <alias>  (155) 
DPMBRJRYYJPZBM-QMMMGPOBSA-N-P12

>  <subsites>  (155) 


>  <placement_batch>  (155) 
CpKRS_FrAncestor_bulkdock_iter2

>  <name>  (155) 
DPMBRJRYYJPZBM-QMMMGPOBSA-N-P12

$$$$
RPYMTSUCKIJOAK-UHFFFAOYSA-N-P54
     RDKit          3D

 12 12  0  0  0  0  0  0  0  0999 V2000
    4.8857  -38.2985   11.2308 C   0  0  0  0  0  0  0  0  0  0  0  0
    6.3303  -38.0911   11.5982 C   0  0  0  0  0  0  0  0  0  0  0  0
    6.8166  -38.8109   12.7046 C   0  0  0  0  0  0  0  0  0  0  0  0
    8.1445  -38.7050   13.1029 C   0  0  0  0  0  0  0  0  0  0  0  0
    9.0152  -37.8856   12.3949 C   0  0  0  0  0  0  0  0  0  0  0  0
    8.5612  -37.1461   11.2974 C   0  0  0  0  0  0  0  0  0  0  0  0
    9.7638  -36.1923   10.4965 Cl  0  0  0  0  0  0  0  0  0  0  0  0
    7.2110  -37.2194   10.9093 C   0  0  0  0  0  0  0  0  0  0  0  0
    6.6316  -36.1995    9.5751 S   0  0  0  0  0  0  0  0  0  0  0  0
    7.2075  -34.6463    9.9249 N   0  0  0  0  0  0  0  0  0  0  0  0
    5.1996  -36.0233    9.6736 O   0  0  0  0  0  0  0  0  0  0  0  0
    7.2659  -36.6207    8.3507 O   0  0  0  0  0  0  0  0  0  0  0  0
  1  2  1  0
  2  3  2  0
  3  4  1  0
  4  5  2  0
  5  6  1  0
  6  7  1  0
  6  8  2  0
  8  9  1  0
  9 10  1  0
  9 11  2  0
  9 12  2  0
  8  2  1  0
M  END
>  <inchikey>  (156) 
RPYMTSUCKIJOAK-UHFFFAOYSA-N

>  <tags>  (156) 
fragmenstein_placed,CpKRS_FrAncestor_bulkdock_iter2

>  <ref_pdb>  (156) 
x0540b

>  <energy_score>  (156) 
-28.86391

>  <distance_score>  (156) 
0.21414

>  <HIPPO Pose ID>  (156) 
53186

>  <ref_mols>  (156) 
x0639c

>  <smiles>  (156) 
Cc1cccc(Cl)c1S(N)(=O)=O

>  <HIPPO Compound ID>  (156) 
447579

>  <alias>  (156) 
RPYMTSUCKIJOAK-UHFFFAOYSA-N-P54

>  <subsites>  (156) 


>  <placement_batch>  (156) 
CpKRS_FrAncestor_bulkdock_iter2

>  <name>  (156) 
RPYMTSUCKIJOAK-UHFFFAOYSA-N-P54

$$$$
HNHWVGWUPMBPIZ-UHFFFAOYSA-N-P54
     RDKit          3D

 16 16  0  0  0  0  0  0  0  0999 V2000
    4.8353  -38.1463   11.8631 C   0  0  0  0  0  0  0  0  0  0  0  0
    6.3376  -38.1275   11.9445 C   0  0  0  0  0  0  0  0  0  0  0  0
    6.9235  -38.9135   12.9539 C   0  0  0  0  0  0  0  0  0  0  0  0
    8.2989  -38.9180   13.1590 C   0  0  0  0  0  0  0  0  0  0  0  0
    9.1196  -38.1345   12.3587 C   0  0  0  0  0  0  0  0  0  0  0  0
    8.5734  -37.3459   11.3408 C   0  0  0  0  0  0  0  0  0  0  0  0
    9.7155  -36.3868   10.4580 Cl  0  0  0  0  0  0  0  0  0  0  0  0
    7.1829  -37.3501   11.1117 C   0  0  0  0  0  0  0  0  0  0  0  0
    6.5269  -36.2738    9.8470 S   0  0  0  0  0  0  0  0  0  0  0  0
    7.0201  -34.9427   10.1420 O   0  0  0  0  0  0  0  0  0  0  0  0
    5.1072  -36.4870    9.6877 O   0  0  0  0  0  0  0  0  0  0  0  0
    7.2810  -36.7682    8.4442 N   0  0  0  0  0  0  0  0  0  0  0  0
    6.8824  -37.9062    7.5960 C   0  0  0  0  0  0  0  0  0  0  0  0
    8.0920  -38.2167    6.6945 C   0  0  0  0  0  0  0  0  0  0  0  0
    6.5496  -39.1633    8.3980 C   0  0  0  0  0  0  0  0  0  0  0  0
    5.7018  -37.4947    6.7101 C   0  0  0  0  0  0  0  0  0  0  0  0
  1  2  1  0
  2  3  2  0
  3  4  1  0
  4  5  2  0
  5  6  1  0
  6  7  1  0
  6  8  2  0
  8  9  1  0
  9 10  2  0
  9 11  2  0
  9 12  1  0
 12 13  1  0
 13 14  1  0
 13 15  1  0
 13 16  1  0
  8  2  1  0
M  END
>  <inchikey>  (157) 
HNHWVGWUPMBPIZ-UHFFFAOYSA-N

>  <tags>  (157) 
fragmenstein_placed,CpKRS_FrAncestor_bulkdock_iter2

>  <ref_pdb>  (157) 
x0540b

>  <energy_score>  (157) 
-48.846865

>  <distance_score>  (157) 
0.266115

>  <HIPPO Pose ID>  (157) 
53189

>  <ref_mols>  (157) 
x0639c

>  <smiles>  (157) 
Cc1cccc(Cl)c1S(=O)(=O)NC(C)(C)C

>  <HIPPO Compound ID>  (157) 
134093

>  <alias>  (157) 
HNHWVGWUPMBPIZ-UHFFFAOYSA-N-P54

>  <subsites>  (157) 


>  <placement_batch>  (157) 
CpKRS_FrAncestor_bulkdock_iter2

>  <name>  (157) 
HNHWVGWUPMBPIZ-UHFFFAOYSA-N-P54

$$$$
JOEAEPZAJZPMGP-UHFFFAOYSA-N-P54
     RDKit          3D

 15 15  0  0  0  0  0  0  0  0999 V2000
    4.8379  -38.1608   11.8438 C   0  0  0  0  0  0  0  0  0  0  0  0
    6.3396  -38.1337   11.9356 C   0  0  0  0  0  0  0  0  0  0  0  0
    6.9230  -38.9178   12.9480 C   0  0  0  0  0  0  0  0  0  0  0  0
    8.2972  -38.9169   13.1607 C   0  0  0  0  0  0  0  0  0  0  0  0
    9.1192  -38.1299   12.3653 C   0  0  0  0  0  0  0  0  0  0  0  0
    8.5755  -37.3423   11.3454 C   0  0  0  0  0  0  0  0  0  0  0  0
    9.7191  -36.3816   10.4662 Cl  0  0  0  0  0  0  0  0  0  0  0  0
    7.1861  -37.3506   11.1094 C   0  0  0  0  0  0  0  0  0  0  0  0
    6.5325  -36.2701    9.8467 S   0  0  0  0  0  0  0  0  0  0  0  0
    5.1115  -36.4784    9.6919 O   0  0  0  0  0  0  0  0  0  0  0  0
    7.0311  -34.9410   10.1410 O   0  0  0  0  0  0  0  0  0  0  0  0
    7.2772  -36.7688    8.4411 N   0  0  0  0  0  0  0  0  0  0  0  0
    6.8671  -37.9054    7.6104 C   0  0  0  0  0  0  0  0  0  0  0  0
    5.6691  -37.5353    6.7451 C   0  0  0  0  0  0  0  0  0  0  0  0
    6.6393  -39.1867    8.3939 C   0  0  0  0  0  0  0  0  0  0  0  0
  1  2  1  0
  2  3  2  0
  3  4  1  0
  4  5  2  0
  5  6  1  0
  6  7  1  0
  6  8  2  0
  8  9  1  0
  9 10  2  0
  9 11  2  0
  9 12  1  0
 12 13  1  0
 13 14  1  0
 13 15  1  0
  8  2  1  0
M  END
>  <inchikey>  (158) 
JOEAEPZAJZPMGP-UHFFFAOYSA-N

>  <tags>  (158) 
fragmenstein_placed,CpKRS_FrAncestor_bulkdock_iter2

>  <ref_pdb>  (158) 
x0540b

>  <energy_score>  (158) 
-49.185414

>  <distance_score>  (158) 
0.259825

>  <HIPPO Pose ID>  (158) 
53192

>  <ref_mols>  (158) 
x0639c

>  <smiles>  (158) 
Cc1cccc(Cl)c1S(=O)(=O)NC(C)C

>  <HIPPO Compound ID>  (158) 
312133

>  <alias>  (158) 
JOEAEPZAJZPMGP-UHFFFAOYSA-N-P54

>  <subsites>  (158) 


>  <placement_batch>  (158) 
CpKRS_FrAncestor_bulkdock_iter2

>  <name>  (158) 
JOEAEPZAJZPMGP-UHFFFAOYSA-N-P54

$$$$
NQOXYEHROLEESL-CYBMUJFWSA-N-P60
     RDKit          3D

 17 18  0  0  0  0  0  0  0  0999 V2000
   -3.6564  -25.4520   27.0660 C   0  0  0  0  0  0  0  0  0  0  0  0
   -2.7990  -25.6356   25.8510 C   0  0  0  0  0  0  0  0  0  0  0  0
   -1.9876  -24.5929   25.3996 C   0  0  0  0  0  0  0  0  0  0  0  0
   -1.1654  -24.7689   24.2876 C   0  0  0  0  0  0  0  0  0  0  0  0
   -1.1170  -25.9977   23.6344 C   0  0  0  0  0  0  0  0  0  0  0  0
   -1.9315  -27.0529   24.0603 C   0  0  0  0  0  0  0  0  0  0  0  0
   -1.9299  -28.3687   23.3093 C   0  0  0  0  0  0  0  0  0  0  0  0
   -0.8510  -29.2818   23.6800 N   0  0  0  0  0  0  0  0  0  0  0  0
   -0.8496  -29.7278   25.0812 C   0  0  0  0  0  0  0  0  0  0  0  0
   -1.5561  -31.0852   25.3748 C   0  0  0  0  0  0  0  0  0  0  0  0
   -1.0837  -31.6168   26.7355 C   0  0  0  0  0  0  0  0  0  0  0  0
   -3.0814  -30.9489   25.4094 C   0  0  0  0  0  0  0  0  0  0  0  0
   -1.2537  -32.1056   24.4030 O   0  0  0  0  0  0  0  0  0  0  0  0
   -0.2228  -31.7154   23.4893 C   0  0  0  0  0  0  0  0  0  0  0  0
   -0.6052  -30.4112   22.7430 C   0  0  1  0  0  0  0  0  0  0  0  0
   -1.7358  -30.7348   21.7487 C   0  0  0  0  0  0  0  0  0  0  0  0
   -2.7690  -26.8596   25.1722 C   0  0  0  0  0  0  0  0  0  0  0  0
  1  2  1  0
  2  3  2  0
  3  4  1  0
  4  5  2  0
  5  6  1  0
  6  7  1  0
  7  8  1  0
  8  9  1  0
  9 10  1  0
 10 11  1  0
 10 12  1  0
 10 13  1  0
 13 14  1  0
 14 15  1  0
 15 16  1  1
  6 17  2  0
 17  2  1  0
 15  8  1  0
M  END
>  <inchikey>  (159) 
NQOXYEHROLEESL-UHFFFAOYSA-N

>  <tags>  (159) 
fragmenstein_placed,CpKRS_FrAncestor_bulkdock_iter2

>  <ref_pdb>  (159) 
x0540b

>  <energy_score>  (159) 
-31.256355

>  <distance_score>  (159) 
0.402963

>  <HIPPO Pose ID>  (159) 
53197

>  <ref_mols>  (159) 
x0675b

>  <smiles>  (159) 
Cc1cccc(CN2CC(C)(C)OC[C@H]2C)c1

>  <HIPPO Compound ID>  (159) 
447581

>  <alias>  (159) 
NQOXYEHROLEESL-CYBMUJFWSA-N-P60

>  <subsites>  (159) 


>  <placement_batch>  (159) 
CpKRS_FrAncestor_bulkdock_iter2

>  <name>  (159) 
NQOXYEHROLEESL-CYBMUJFWSA-N-P60

$$$$
HVFYOJROVVXAIZ-UHFFFAOYSA-N-P60
     RDKit          3D

 17 18  0  0  0  0  0  0  0  0999 V2000
   -3.6419  -25.4395   27.0465 C   0  0  0  0  0  0  0  0  0  0  0  0
   -2.7908  -25.6292   25.8279 C   0  0  0  0  0  0  0  0  0  0  0  0
   -1.9803  -24.5895   25.3676 C   0  0  0  0  0  0  0  0  0  0  0  0
   -1.1613  -24.7722   24.2541 C   0  0  0  0  0  0  0  0  0  0  0  0
   -1.1165  -26.0044   23.6070 C   0  0  0  0  0  0  0  0  0  0  0  0
   -1.9296  -27.0566   24.0423 C   0  0  0  0  0  0  0  0  0  0  0  0
   -1.9252  -28.3804   23.3049 C   0  0  0  0  0  0  0  0  0  0  0  0
   -0.8060  -29.2608   23.6433 N   0  0  0  0  0  0  0  0  0  0  0  0
   -0.7565  -29.6743   25.0534 C   0  0  0  0  0  0  0  0  0  0  0  0
   -1.4511  -31.0121   25.4032 C   0  0  1  0  0  0  0  0  0  0  0  0
   -2.9540  -30.8794   25.6085 C   0  0  0  0  0  0  0  0  0  0  0  0
   -1.2385  -32.0499   24.4330 O   0  0  0  0  0  0  0  0  0  0  0  0
   -0.2084  -31.7121   23.4980 C   0  0  0  0  0  0  0  0  0  0  0  0
   -0.5755  -30.4118   22.7176 C   0  0  0  0  0  0  0  0  0  0  0  0
   -1.7656  -30.7583   21.7894 C   0  0  0  0  0  0  0  0  0  0  0  0
    0.6267  -30.0253   21.8353 C   0  0  0  0  0  0  0  0  0  0  0  0
   -2.7630  -26.8572   25.1564 C   0  0  0  0  0  0  0  0  0  0  0  0
  1  2  1  0
  2  3  2  0
  3  4  1  0
  4  5  2  0
  5  6  1  0
  6  7  1  0
  7  8  1  0
  8  9  1  0
  9 10  1  0
 10 11  1  6
 10 12  1  0
 12 13  1  0
 13 14  1  0
 14 15  1  0
 14 16  1  0
  6 17  2  0
 17  2  1  0
 14  8  1  0
M  END
>  <inchikey>  (160) 
HVFYOJROVVXAIZ-UHFFFAOYSA-N

>  <tags>  (160) 
fragmenstein_placed,CpKRS_FrAncestor_bulkdock_iter2

>  <ref_pdb>  (160) 
x0540b

>  <energy_score>  (160) 
-34.784675

>  <distance_score>  (160) 
0.40029

>  <HIPPO Pose ID>  (160) 
53207

>  <ref_mols>  (160) 
x0675b

>  <smiles>  (160) 
Cc1cccc(CN2CC(C)OCC2(C)C)c1

>  <HIPPO Compound ID>  (160) 
447583

>  <alias>  (160) 
HVFYOJROVVXAIZ-UHFFFAOYSA-N-P60

>  <subsites>  (160) 


>  <placement_batch>  (160) 
CpKRS_FrAncestor_bulkdock_iter2

>  <name>  (160) 
HVFYOJROVVXAIZ-UHFFFAOYSA-N-P60

$$$$
QDAQCYLBKFODSA-NSHDSACASA-N-P60
     RDKit          3D

 17 18  0  0  0  0  0  0  0  0999 V2000
   -3.5731  -25.5058   27.0651 C   0  0  0  0  0  0  0  0  0  0  0  0
   -2.7430  -25.6727   25.8283 C   0  0  0  0  0  0  0  0  0  0  0  0
   -1.9757  -24.6079   25.3493 C   0  0  0  0  0  0  0  0  0  0  0  0
   -1.1763  -24.7656   24.2180 C   0  0  0  0  0  0  0  0  0  0  0  0
   -1.1119  -25.9958   23.5684 C   0  0  0  0  0  0  0  0  0  0  0  0
   -1.8771  -27.0749   24.0260 C   0  0  0  0  0  0  0  0  0  0  0  0
   -1.8258  -28.4050   23.3062 C   0  0  0  0  0  0  0  0  0  0  0  0
   -0.5948  -29.1760   23.5729 N   0  0  0  0  0  0  0  0  0  0  0  0
   -0.5259  -29.6140   24.9910 C   0  0  0  0  0  0  0  0  0  0  0  0
   -1.4402  -30.7996   25.3738 C   0  0  0  0  0  0  0  0  0  0  0  0
   -2.7050  -30.3654   25.6033 F   0  0  0  0  0  0  0  0  0  0  0  0
   -1.0053  -31.3667   26.5261 F   0  0  0  0  0  0  0  0  0  0  0  0
   -1.5233  -31.8318   24.3953 O   0  0  0  0  0  0  0  0  0  0  0  0
   -0.4737  -31.7236   23.4329 C   0  0  0  0  0  0  0  0  0  0  0  0
   -0.5370  -30.3687   22.6807 C   0  0  2  0  0  0  0  0  0  0  0  0
    0.6749  -30.2207   21.7611 C   0  0  0  0  0  0  0  0  0  0  0  0
   -2.6881  -26.9029   25.1609 C   0  0  0  0  0  0  0  0  0  0  0  0
  1  2  1  0
  2  3  2  0
  3  4  1  0
  4  5  2  0
  5  6  1  0
  6  7  1  0
  7  8  1  0
  8  9  1  0
  9 10  1  0
 10 11  1  0
 10 12  1  0
 10 13  1  0
 13 14  1  0
 14 15  1  0
 15 16  1  1
  6 17  2  0
 17  2  1  0
 15  8  1  0
M  END
>  <inchikey>  (161) 
QDAQCYLBKFODSA-UHFFFAOYSA-N

>  <tags>  (161) 
fragmenstein_placed,CpKRS_FrAncestor_bulkdock_iter2

>  <ref_pdb>  (161) 
x0540b

>  <energy_score>  (161) 
-28.558561

>  <distance_score>  (161) 
0.34872

>  <HIPPO Pose ID>  (161) 
53215

>  <ref_mols>  (161) 
x0675b

>  <smiles>  (161) 
Cc1cccc(CN2CC(F)(F)OC[C@@H]2C)c1

>  <HIPPO Compound ID>  (161) 
447584

>  <alias>  (161) 
QDAQCYLBKFODSA-NSHDSACASA-N-P60

>  <subsites>  (161) 


>  <placement_batch>  (161) 
CpKRS_FrAncestor_bulkdock_iter2

>  <name>  (161) 
QDAQCYLBKFODSA-NSHDSACASA-N-P60

$$$$
GCTJIFVYOLGRCI-STQMWFEESA-N-P60
     RDKit          3D

 16 17  0  0  0  0  0  0  0  0999 V2000
   -3.6728  -25.4505   27.0515 C   0  0  0  0  0  0  0  0  0  0  0  0
   -2.7991  -25.6343   25.8482 C   0  0  0  0  0  0  0  0  0  0  0  0
   -2.0083  -24.5804   25.3849 C   0  0  0  0  0  0  0  0  0  0  0  0
   -1.1770  -24.7549   24.2792 C   0  0  0  0  0  0  0  0  0  0  0  0
   -1.1026  -25.9906   23.6412 C   0  0  0  0  0  0  0  0  0  0  0  0
   -1.8946  -27.0573   24.0800 C   0  0  0  0  0  0  0  0  0  0  0  0
   -1.8548  -28.3842   23.3532 C   0  0  0  0  0  0  0  0  0  0  0  0
   -0.6963  -29.2249   23.7017 N   0  0  0  0  0  0  0  0  0  0  0  0
   -0.7488  -29.7202   25.0899 C   0  0  0  0  0  0  0  0  0  0  0  0
   -1.6537  -30.9572   25.2697 C   0  0  2  0  0  0  0  0  0  0  0  0
   -1.5951  -31.4714   26.7029 C   0  0  0  0  0  0  0  0  0  0  0  0
   -1.3139  -32.0502   24.4016 O   0  0  0  0  0  0  0  0  0  0  0  0
   -0.3022  -31.7175   23.4427 C   0  0  0  0  0  0  0  0  0  0  0  0
   -0.5927  -30.3667   22.7507 C   0  0  2  0  0  0  0  0  0  0  0  0
    0.4986  -30.0521   21.7278 C   0  0  0  0  0  0  0  0  0  0  0  0
   -2.7364  -26.8690   25.1897 C   0  0  0  0  0  0  0  0  0  0  0  0
  1  2  1  0
  2  3  2  0
  3  4  1  0
  4  5  2  0
  5  6  1  0
  6  7  1  0
  7  8  1  0
  8  9  1  0
  9 10  1  0
 10 11  1  1
 10 12  1  0
 12 13  1  0
 13 14  1  0
 14 15  1  6
  6 16  2  0
 16  2  1  0
 14  8  1  0
M  END
>  <inchikey>  (162) 
GCTJIFVYOLGRCI-UHFFFAOYSA-N

>  <tags>  (162) 
fragmenstein_placed,CpKRS_FrAncestor_bulkdock_iter2

>  <ref_pdb>  (162) 
x0540b

>  <energy_score>  (162) 
-30.876603

>  <distance_score>  (162) 
0.362577

>  <HIPPO Pose ID>  (162) 
53217

>  <ref_mols>  (162) 
x0675b

>  <smiles>  (162) 
Cc1cccc(CN2C[C@H](C)OC[C@@H]2C)c1

>  <HIPPO Compound ID>  (162) 
140057

>  <alias>  (162) 
GCTJIFVYOLGRCI-STQMWFEESA-N-P60

>  <subsites>  (162) 


>  <placement_batch>  (162) 
CpKRS_FrAncestor_bulkdock_iter2

>  <name>  (162) 
GCTJIFVYOLGRCI-STQMWFEESA-N-P60

$$$$
HPNXLNJSYNWUNL-STQMWFEESA-N-P60
     RDKit          3D

 16 17  0  0  0  0  0  0  0  0999 V2000
   -3.6959  -25.4257   27.0651 C   0  0  0  0  0  0  0  0  0  0  0  0
   -2.8159  -25.6136   25.8673 C   0  0  0  0  0  0  0  0  0  0  0  0
   -2.0188  -24.5636   25.4063 C   0  0  0  0  0  0  0  0  0  0  0  0
   -1.1841  -24.7427   24.3038 C   0  0  0  0  0  0  0  0  0  0  0  0
   -1.1120  -25.9793   23.6674 C   0  0  0  0  0  0  0  0  0  0  0  0
   -1.9108  -27.0417   24.1039 C   0  0  0  0  0  0  0  0  0  0  0  0
   -1.8823  -28.3664   23.3743 C   0  0  0  0  0  0  0  0  0  0  0  0
   -0.7479  -29.2297   23.7376 N   0  0  0  0  0  0  0  0  0  0  0  0
   -0.8326  -29.7530   25.1145 C   0  0  0  0  0  0  0  0  0  0  0  0
   -1.6475  -31.0576   25.2213 C   0  0  2  0  0  0  0  0  0  0  0  0
   -1.6947  -31.5570   26.6597 C   0  0  0  0  0  0  0  0  0  0  0  0
   -1.1196  -32.1223   24.4127 O   0  0  0  0  0  0  0  0  0  0  0  0
   -0.1888  -31.6750   23.4102 C   0  0  1  0  0  0  0  0  0  0  0  0
   -0.0695  -32.7805   22.3688 C   0  0  0  0  0  0  0  0  0  0  0  0
   -0.6537  -30.3514   22.7679 C   0  0  0  0  0  0  0  0  0  0  0  0
   -2.7560  -26.8485   25.2099 C   0  0  0  0  0  0  0  0  0  0  0  0
  1  2  1  0
  2  3  2  0
  3  4  1  0
  4  5  2  0
  5  6  1  0
  6  7  1  0
  7  8  1  0
  8  9  1  0
  9 10  1  0
 10 11  1  1
 10 12  1  0
 12 13  1  0
 13 14  1  6
 13 15  1  0
  6 16  2  0
 16  2  1  0
 15  8  1  0
M  END
>  <inchikey>  (163) 
HPNXLNJSYNWUNL-UHFFFAOYSA-N

>  <tags>  (163) 
fragmenstein_placed,CpKRS_FrAncestor_bulkdock_iter2

>  <ref_pdb>  (163) 
x0540b

>  <energy_score>  (163) 
-24.097298

>  <distance_score>  (163) 
0.409482

>  <HIPPO Pose ID>  (163) 
53221

>  <ref_mols>  (163) 
x0675b

>  <smiles>  (163) 
Cc1cccc(CN2C[C@H](C)O[C@@H](C)C2)c1

>  <HIPPO Compound ID>  (163) 
139854

>  <alias>  (163) 
HPNXLNJSYNWUNL-STQMWFEESA-N-P60

>  <subsites>  (163) 


>  <placement_batch>  (163) 
CpKRS_FrAncestor_bulkdock_iter2

>  <name>  (163) 
HPNXLNJSYNWUNL-STQMWFEESA-N-P60

$$$$
UQZDDCCFVRXALD-UHFFFAOYSA-N-P60
     RDKit          3D

 15 16  0  0  0  0  0  0  0  0999 V2000
   -3.7371  -25.1552   26.8717 C   0  0  0  0  0  0  0  0  0  0  0  0
   -2.8350  -25.5391   25.7318 C   0  0  0  0  0  0  0  0  0  0  0  0
   -1.9581  -24.5702   25.2254 C   0  0  0  0  0  0  0  0  0  0  0  0
   -1.1005  -24.8668   24.1722 C   0  0  0  0  0  0  0  0  0  0  0  0
   -1.0865  -26.1431   23.6239 C   0  0  0  0  0  0  0  0  0  0  0  0
   -1.9626  -27.1391   24.0907 C   0  0  0  0  0  0  0  0  0  0  0  0
   -1.9259  -28.4783   23.3808 C   0  0  0  0  0  0  0  0  0  0  0  0
   -0.7476  -29.3008   23.7078 N   0  0  0  0  0  0  0  0  0  0  0  0
   -0.6627  -30.4353   22.7517 C   0  0  0  0  0  0  0  0  0  0  0  0
   -0.1814  -31.7443   23.3951 C   0  0  0  0  0  0  0  0  0  0  0  0
   -1.0658  -32.1861   24.4348 O   0  0  0  0  0  0  0  0  0  0  0  0
   -1.5563  -31.1141   25.2510 C   0  0  0  0  0  0  0  0  0  0  0  0
   -0.7646  -29.8084   25.0926 C   0  0  0  0  0  0  0  0  0  0  0  0
   -2.8359  -26.8273   25.1561 C   0  0  0  0  0  0  0  0  0  0  0  0
   -4.0594  -28.1334   25.8349 Br  0  0  0  0  0  0  0  0  0  0  0  0
  1  2  1  0
  2  3  2  0
  3  4  1  0
  4  5  2  0
  5  6  1  0
  6  7  1  0
  7  8  1  0
  8  9  1  0
  9 10  1  0
 10 11  1  0
 11 12  1  0
 12 13  1  0
  6 14  2  0
 14 15  1  0
 14  2  1  0
 13  8  1  0
M  END
>  <inchikey>  (164) 
UQZDDCCFVRXALD-UHFFFAOYSA-N

>  <tags>  (164) 
fragmenstein_placed,CpKRS_FrAncestor_bulkdock_iter2

>  <ref_pdb>  (164) 
x0540b

>  <energy_score>  (164) 
-29.868462

>  <distance_score>  (164) 
0.456111

>  <HIPPO Pose ID>  (164) 
53225

>  <ref_mols>  (164) 
x0675b

>  <smiles>  (164) 
Cc1cccc(CN2CCOCC2)c1Br

>  <HIPPO Compound ID>  (164) 
324468

>  <alias>  (164) 
UQZDDCCFVRXALD-UHFFFAOYSA-N-P60

>  <subsites>  (164) 


>  <placement_batch>  (164) 
CpKRS_FrAncestor_bulkdock_iter2

>  <name>  (164) 
UQZDDCCFVRXALD-UHFFFAOYSA-N-P60

$$$$
LLHAXCLEKLGFCN-UHFFFAOYSA-N-P60
     RDKit          3D

 15 16  0  0  0  0  0  0  0  0999 V2000
   -3.7266  -25.2021   26.8967 C   0  0  0  0  0  0  0  0  0  0  0  0
   -2.8263  -25.5480   25.7440 C   0  0  0  0  0  0  0  0  0  0  0  0
   -1.9688  -24.5614   25.2405 C   0  0  0  0  0  0  0  0  0  0  0  0
   -1.1150  -24.8378   24.1774 C   0  0  0  0  0  0  0  0  0  0  0  0
   -1.0861  -26.1095   23.6165 C   0  0  0  0  0  0  0  0  0  0  0  0
   -1.9431  -27.1201   24.0842 C   0  0  0  0  0  0  0  0  0  0  0  0
   -1.9078  -28.4587   23.3755 C   0  0  0  0  0  0  0  0  0  0  0  0
   -0.7366  -29.2882   23.7107 N   0  0  0  0  0  0  0  0  0  0  0  0
   -0.6557  -30.4253   22.7565 C   0  0  0  0  0  0  0  0  0  0  0  0
   -0.2093  -31.7435   23.4068 C   0  0  0  0  0  0  0  0  0  0  0  0
   -1.1169  -32.1665   24.4341 O   0  0  0  0  0  0  0  0  0  0  0  0
   -1.5870  -31.0859   25.2513 C   0  0  0  0  0  0  0  0  0  0  0  0
   -0.7695  -29.7960   25.0957 C   0  0  0  0  0  0  0  0  0  0  0  0
   -2.8089  -26.8302   25.1594 C   0  0  0  0  0  0  0  0  0  0  0  0
   -3.8838  -28.0467   25.7814 Cl  0  0  0  0  0  0  0  0  0  0  0  0
  1  2  1  0
  2  3  2  0
  3  4  1  0
  4  5  2  0
  5  6  1  0
  6  7  1  0
  7  8  1  0
  8  9  1  0
  9 10  1  0
 10 11  1  0
 11 12  1  0
 12 13  1  0
  6 14  2  0
 14 15  1  0
 14  2  1  0
 13  8  1  0
M  END
>  <inchikey>  (165) 
LLHAXCLEKLGFCN-UHFFFAOYSA-N

>  <tags>  (165) 
fragmenstein_placed,CpKRS_FrAncestor_bulkdock_iter2

>  <ref_pdb>  (165) 
x0540b

>  <energy_score>  (165) 
-28.195869

>  <distance_score>  (165) 
0.434193

>  <HIPPO Pose ID>  (165) 
53227

>  <ref_mols>  (165) 
x0675b

>  <smiles>  (165) 
Cc1cccc(CN2CCOCC2)c1Cl

>  <HIPPO Compound ID>  (165) 
324493

>  <alias>  (165) 
LLHAXCLEKLGFCN-UHFFFAOYSA-N-P60

>  <subsites>  (165) 


>  <placement_batch>  (165) 
CpKRS_FrAncestor_bulkdock_iter2

>  <name>  (165) 
LLHAXCLEKLGFCN-UHFFFAOYSA-N-P60

$$$$
GOPKXIIPSZFPMZ-UHFFFAOYSA-N-P60
     RDKit          3D

 15 16  0  0  0  0  0  0  0  0999 V2000
   -3.7922  -25.1719   26.9097 C   0  0  0  0  0  0  0  0  0  0  0  0
   -2.8659  -25.5512   25.7865 C   0  0  0  0  0  0  0  0  0  0  0  0
   -1.9847  -24.5767   25.2992 C   0  0  0  0  0  0  0  0  0  0  0  0
   -1.1186  -24.8617   24.2517 C   0  0  0  0  0  0  0  0  0  0  0  0
   -1.1008  -26.1314   23.6917 C   0  0  0  0  0  0  0  0  0  0  0  0
   -1.9787  -27.1318   24.1452 C   0  0  0  0  0  0  0  0  0  0  0  0
   -1.9500  -28.4590   23.4062 C   0  0  0  0  0  0  0  0  0  0  0  0
   -0.7764  -29.2934   23.7141 N   0  0  0  0  0  0  0  0  0  0  0  0
   -0.7004  -30.4152   22.7448 C   0  0  0  0  0  0  0  0  0  0  0  0
   -0.1804  -31.7205   23.3647 C   0  0  0  0  0  0  0  0  0  0  0  0
   -1.0343  -32.1892   24.4184 O   0  0  0  0  0  0  0  0  0  0  0  0
   -1.5357  -31.1334   25.2478 C   0  0  0  0  0  0  0  0  0  0  0  0
   -0.7720  -29.8105   25.0940 C   0  0  0  0  0  0  0  0  0  0  0  0
   -2.8599  -26.8498   25.2214 C   0  0  0  0  0  0  0  0  0  0  0  0
   -3.8551  -27.8731   25.7119 C   0  0  0  0  0  0  0  0  0  0  0  0
  1  2  1  0
  2  3  2  0
  3  4  1  0
  4  5  2  0
  5  6  1  0
  6  7  1  0
  7  8  1  0
  8  9  1  0
  9 10  1  0
 10 11  1  0
 11 12  1  0
 12 13  1  0
  6 14  2  0
 14 15  1  0
 14  2  1  0
 13  8  1  0
M  END
>  <inchikey>  (166) 
GOPKXIIPSZFPMZ-UHFFFAOYSA-N

>  <tags>  (166) 
fragmenstein_placed,CpKRS_FrAncestor_bulkdock_iter2

>  <ref_pdb>  (166) 
x0540b

>  <energy_score>  (166) 
-21.956343

>  <distance_score>  (166) 
0.466887

>  <HIPPO Pose ID>  (166) 
53229

>  <ref_mols>  (166) 
x0675b

>  <smiles>  (166) 
Cc1cccc(CN2CCOCC2)c1C

>  <HIPPO Compound ID>  (166) 
324401

>  <alias>  (166) 
GOPKXIIPSZFPMZ-UHFFFAOYSA-N-P60

>  <subsites>  (166) 


>  <placement_batch>  (166) 
CpKRS_FrAncestor_bulkdock_iter2

>  <name>  (166) 
GOPKXIIPSZFPMZ-UHFFFAOYSA-N-P60

$$$$
KKPCPGWGLHHNSW-UHFFFAOYSA-N-P60
     RDKit          3D

 14 15  0  0  0  0  0  0  0  0999 V2000
   -3.6969  -25.4208   27.0611 C   0  0  0  0  0  0  0  0  0  0  0  0
   -2.8144  -25.6141   25.8660 C   0  0  0  0  0  0  0  0  0  0  0  0
   -2.0144  -24.5672   25.4034 C   0  0  0  0  0  0  0  0  0  0  0  0
   -1.1777  -24.7516   24.3033 C   0  0  0  0  0  0  0  0  0  0  0  0
   -1.1062  -25.9906   23.6714 C   0  0  0  0  0  0  0  0  0  0  0  0
   -1.9080  -27.0500   24.1094 C   0  0  0  0  0  0  0  0  0  0  0  0
   -1.8826  -28.3761   23.3821 C   0  0  0  0  0  0  0  0  0  0  0  0
   -0.7602  -29.2499   23.7585 N   0  0  0  0  0  0  0  0  0  0  0  0
   -0.8675  -29.7747   25.1326 C   0  0  0  0  0  0  0  0  0  0  0  0
   -1.6999  -31.0604   25.2294 C   0  0  0  0  0  0  0  0  0  0  0  0
   -1.1987  -32.1345   24.4235 O   0  0  0  0  0  0  0  0  0  0  0  0
   -0.2528  -31.7030   23.4342 C   0  0  0  0  0  0  0  0  0  0  0  0
   -0.6680  -30.3722   22.7894 C   0  0  0  0  0  0  0  0  0  0  0  0
   -2.7555  -26.8513   25.2127 C   0  0  0  0  0  0  0  0  0  0  0  0
  1  2  1  0
  2  3  2  0
  3  4  1  0
  4  5  2  0
  5  6  1  0
  6  7  1  0
  7  8  1  0
  8  9  1  0
  9 10  1  0
 10 11  1  0
 11 12  1  0
 12 13  1  0
  6 14  2  0
 14  2  1  0
 13  8  1  0
M  END
>  <inchikey>  (167) 
KKPCPGWGLHHNSW-UHFFFAOYSA-N

>  <tags>  (167) 
fragmenstein_placed,CpKRS_FrAncestor_bulkdock_iter2

>  <ref_pdb>  (167) 
x0540b

>  <energy_score>  (167) 
-20.680383

>  <distance_score>  (167) 
0.395093

>  <HIPPO Pose ID>  (167) 
53231

>  <ref_mols>  (167) 
x0675b

>  <smiles>  (167) 
Cc1cccc(CN2CCOCC2)c1

>  <HIPPO Compound ID>  (167) 
447585

>  <alias>  (167) 
KKPCPGWGLHHNSW-UHFFFAOYSA-N-P60

>  <subsites>  (167) 


>  <placement_batch>  (167) 
CpKRS_FrAncestor_bulkdock_iter2

>  <name>  (167) 
KKPCPGWGLHHNSW-UHFFFAOYSA-N-P60

$$$$
WLJTYCDEXVNYFD-UHFFFAOYSA-N-P60
     RDKit          3D

 16 17  0  0  0  0  0  0  0  0999 V2000
   -3.7152  -25.2125   26.8893 C   0  0  0  0  0  0  0  0  0  0  0  0
   -2.8165  -25.5578   25.7349 C   0  0  0  0  0  0  0  0  0  0  0  0
   -1.9633  -24.5693   25.2278 C   0  0  0  0  0  0  0  0  0  0  0  0
   -1.1101  -24.8454   24.1643 C   0  0  0  0  0  0  0  0  0  0  0  0
   -1.0777  -26.1186   23.6068 C   0  0  0  0  0  0  0  0  0  0  0  0
   -1.9300  -27.1319   24.0784 C   0  0  0  0  0  0  0  0  0  0  0  0
   -1.8827  -28.4746   23.3763 C   0  0  0  0  0  0  0  0  0  0  0  0
   -0.6896  -29.2771   23.7061 N   0  0  0  0  0  0  0  0  0  0  0  0
   -0.7253  -29.7924   25.0878 C   0  0  0  0  0  0  0  0  0  0  0  0
   -1.5803  -31.0577   25.2544 C   0  0  0  0  0  0  0  0  0  0  0  0
   -1.2243  -32.1274   24.3700 O   0  0  0  0  0  0  0  0  0  0  0  0
   -0.2237  -31.7560   23.4148 C   0  0  0  0  0  0  0  0  0  0  0  0
   -0.5543  -30.4050   22.7409 C   0  0  2  0  0  0  0  0  0  0  0  0
    0.5261  -30.0453   21.7214 C   0  0  0  0  0  0  0  0  0  0  0  0
   -2.7954  -26.8418   25.1535 C   0  0  0  0  0  0  0  0  0  0  0  0
   -3.8643  -28.0598   25.7809 Cl  0  0  0  0  0  0  0  0  0  0  0  0
  1  2  1  0
  2  3  2  0
  3  4  1  0
  4  5  2  0
  5  6  1  0
  6  7  1  0
  7  8  1  0
  8  9  1  0
  9 10  1  0
 10 11  1  0
 11 12  1  0
 12 13  1  0
 13 14  1  6
  6 15  2  0
 15 16  1  0
 15  2  1  0
 13  8  1  0
M  END
>  <inchikey>  (168) 
WLJTYCDEXVNYFD-UHFFFAOYSA-N

>  <tags>  (168) 
fragmenstein_placed,CpKRS_FrAncestor_bulkdock_iter2

>  <ref_pdb>  (168) 
x0540b

>  <energy_score>  (168) 
-33.9428

>  <distance_score>  (168) 
0.41298

>  <HIPPO Pose ID>  (168) 
53235

>  <ref_mols>  (168) 
x0675b

>  <smiles>  (168) 
Cc1cccc(CN2CCOCC2C)c1Cl

>  <HIPPO Compound ID>  (168) 
139949

>  <alias>  (168) 
WLJTYCDEXVNYFD-UHFFFAOYSA-N-P60

>  <subsites>  (168) 


>  <placement_batch>  (168) 
CpKRS_FrAncestor_bulkdock_iter2

>  <name>  (168) 
WLJTYCDEXVNYFD-UHFFFAOYSA-N-P60

$$$$
SAHYUMIFMAYACP-UHFFFAOYSA-N-P60
     RDKit          3D

 16 17  0  0  0  0  0  0  0  0999 V2000
   -2.6624  -23.2769   25.7870 C   0  0  0  0  0  0  0  0  0  0  0  0
   -2.3407  -24.6407   25.2556 C   0  0  0  0  0  0  0  0  0  0  0  0
   -1.3509  -24.7814   24.2736 C   0  0  0  0  0  0  0  0  0  0  0  0
   -1.1169  -26.0148   23.6666 C   0  0  0  0  0  0  0  0  0  0  0  0
   -1.9055  -27.1225   23.9954 C   0  0  0  0  0  0  0  0  0  0  0  0
   -1.8227  -28.4391   23.2208 C   0  0  1  0  0  0  0  0  0  0  0  0
   -1.8508  -28.1360   21.7045 C   0  0  0  0  0  0  0  0  0  0  0  0
   -0.6631  -29.2820   23.6035 N   0  0  0  0  0  0  0  0  0  0  0  0
   -0.6356  -29.6294   25.0395 C   0  0  0  0  0  0  0  0  0  0  0  0
   -1.4594  -30.8801   25.3796 C   0  0  0  0  0  0  0  0  0  0  0  0
   -1.0390  -32.0567   24.6759 O   0  0  0  0  0  0  0  0  0  0  0  0
   -0.1573  -31.7676   23.5813 C   0  0  0  0  0  0  0  0  0  0  0  0
   -0.6246  -30.5328   22.7964 C   0  0  0  0  0  0  0  0  0  0  0  0
   -2.8326  -26.9944   25.0467 C   0  0  0  0  0  0  0  0  0  0  0  0
   -3.0281  -25.7755   25.7107 C   0  0  0  0  0  0  0  0  0  0  0  0
   -4.0134  -25.6935   26.8423 C   0  0  0  0  0  0  0  0  0  0  0  0
  1  2  1  0
  2  3  2  0
  3  4  1  0
  4  5  2  0
  5  6  1  0
  6  7  1  6
  6  8  1  0
  8  9  1  0
  9 10  1  0
 10 11  1  0
 11 12  1  0
 12 13  1  0
  5 14  1  0
 14 15  2  0
 15 16  1  0
 15  2  1  0
 13  8  1  0
M  END
>  <inchikey>  (169) 
SAHYUMIFMAYACP-UHFFFAOYSA-N

>  <tags>  (169) 
fragmenstein_placed,CpKRS_FrAncestor_bulkdock_iter2

>  <ref_pdb>  (169) 
x0540b

>  <energy_score>  (169) 
-31.320903

>  <distance_score>  (169) 
0.535716

>  <HIPPO Pose ID>  (169) 
53237

>  <ref_mols>  (169) 
x0675b

>  <smiles>  (169) 
Cc1ccc(C(C)N2CCOCC2)cc1C

>  <HIPPO Compound ID>  (169) 
139723

>  <alias>  (169) 
SAHYUMIFMAYACP-UHFFFAOYSA-N-P60

>  <subsites>  (169) 


>  <placement_batch>  (169) 
CpKRS_FrAncestor_bulkdock_iter2

>  <name>  (169) 
SAHYUMIFMAYACP-UHFFFAOYSA-N-P60

$$$$
LDGDQTHUPGAISC-UHFFFAOYSA-N-P60
     RDKit          3D

 15 16  0  0  0  0  0  0  0  0999 V2000
   -3.6749  -25.4544   27.0530 C   0  0  0  0  0  0  0  0  0  0  0  0
   -2.7994  -25.6385   25.8510 C   0  0  0  0  0  0  0  0  0  0  0  0
   -2.0093  -24.5839   25.3879 C   0  0  0  0  0  0  0  0  0  0  0  0
   -1.1765  -24.7582   24.2834 C   0  0  0  0  0  0  0  0  0  0  0  0
   -1.0997  -25.9946   23.6469 C   0  0  0  0  0  0  0  0  0  0  0  0
   -1.8907  -27.0622   24.0856 C   0  0  0  0  0  0  0  0  0  0  0  0
   -1.8473  -28.3894   23.3592 C   0  0  0  0  0  0  0  0  0  0  0  0
   -0.6882  -29.2268   23.7130 N   0  0  0  0  0  0  0  0  0  0  0  0
   -0.7571  -29.7355   25.0943 C   0  0  0  0  0  0  0  0  0  0  0  0
   -1.6622  -30.9656   25.2587 C   0  0  0  0  0  0  0  0  0  0  0  0
   -1.3716  -32.0393   24.3560 O   0  0  0  0  0  0  0  0  0  0  0  0
   -0.3226  -31.7239   23.4325 C   0  0  0  0  0  0  0  0  0  0  0  0
   -0.5649  -30.3578   22.7512 C   0  0  2  0  0  0  0  0  0  0  0  0
    0.5690  -30.0449   21.7754 C   0  0  0  0  0  0  0  0  0  0  0  0
   -2.7341  -26.8739   25.1939 C   0  0  0  0  0  0  0  0  0  0  0  0
  1  2  1  0
  2  3  2  0
  3  4  1  0
  4  5  2  0
  5  6  1  0
  6  7  1  0
  7  8  1  0
  8  9  1  0
  9 10  1  0
 10 11  1  0
 11 12  1  0
 12 13  1  0
 13 14  1  6
  6 15  2  0
 15  2  1  0
 13  8  1  0
M  END
>  <inchikey>  (170) 
LDGDQTHUPGAISC-UHFFFAOYSA-N

>  <tags>  (170) 
fragmenstein_placed,CpKRS_FrAncestor_bulkdock_iter2

>  <ref_pdb>  (170) 
x0540b

>  <energy_score>  (170) 
-18.961331

>  <distance_score>  (170) 
0.356135

>  <HIPPO Pose ID>  (170) 
53241

>  <ref_mols>  (170) 
x0675b

>  <smiles>  (170) 
Cc1cccc(CN2CCOCC2C)c1

>  <HIPPO Compound ID>  (170) 
322820

>  <alias>  (170) 
LDGDQTHUPGAISC-UHFFFAOYSA-N-P60

>  <subsites>  (170) 


>  <placement_batch>  (170) 
CpKRS_FrAncestor_bulkdock_iter2

>  <name>  (170) 
LDGDQTHUPGAISC-UHFFFAOYSA-N-P60

$$$$
GGCJFFFLKXVZHT-UHFFFAOYSA-N-P60
     RDKit          3D

 17 18  0  0  0  0  0  0  0  0999 V2000
   -3.7363  -25.1766   26.8954 C   0  0  0  0  0  0  0  0  0  0  0  0
   -2.8370  -25.5601   25.7516 C   0  0  0  0  0  0  0  0  0  0  0  0
   -1.9493  -24.5947   25.2582 C   0  0  0  0  0  0  0  0  0  0  0  0
   -1.0971  -24.8854   24.2009 C   0  0  0  0  0  0  0  0  0  0  0  0
   -1.0995  -26.1533   23.6373 C   0  0  0  0  0  0  0  0  0  0  0  0
   -1.9844  -27.1450   24.0969 C   0  0  0  0  0  0  0  0  0  0  0  0
   -1.9723  -28.4753   23.3580 C   0  0  0  0  0  0  0  0  0  0  0  0
   -0.8013  -29.3140   23.6466 N   0  0  0  0  0  0  0  0  0  0  0  0
   -0.7398  -29.7633   25.0484 C   0  0  0  0  0  0  0  0  0  0  0  0
   -1.4720  -31.0899   25.2909 C   0  0  0  0  0  0  0  0  0  0  0  0
   -1.0334  -32.1627   24.4488 O   0  0  0  0  0  0  0  0  0  0  0  0
   -0.0990  -31.7328   23.4500 C   0  0  0  0  0  0  0  0  0  0  0  0
   -0.5892  -30.4556   22.6993 C   0  0  0  0  0  0  0  0  0  0  0  0
    0.5210  -30.0120   21.7282 C   0  0  0  0  0  0  0  0  0  0  0  0
   -1.8291  -30.8668   21.8669 C   0  0  0  0  0  0  0  0  0  0  0  0
   -2.8530  -26.8560   25.1817 C   0  0  0  0  0  0  0  0  0  0  0  0
   -3.8503  -27.8714   25.6831 C   0  0  0  0  0  0  0  0  0  0  0  0
  1  2  1  0
  2  3  2  0
  3  4  1  0
  4  5  2  0
  5  6  1  0
  6  7  1  0
  7  8  1  0
  8  9  1  0
  9 10  1  0
 10 11  1  0
 11 12  1  0
 12 13  1  0
 13 14  1  0
 13 15  1  0
  6 16  2  0
 16 17  1  0
 16  2  1  0
 13  8  1  0
M  END
>  <inchikey>  (171) 
GGCJFFFLKXVZHT-UHFFFAOYSA-N

>  <tags>  (171) 
fragmenstein_placed,CpKRS_FrAncestor_bulkdock_iter2

>  <ref_pdb>  (171) 
x0540b

>  <energy_score>  (171) 
-30.482328

>  <distance_score>  (171) 
0.468468

>  <HIPPO Pose ID>  (171) 
53243

>  <ref_mols>  (171) 
x0675b

>  <smiles>  (171) 
Cc1cccc(CN2CCOCC2(C)C)c1C

>  <HIPPO Compound ID>  (171) 
447586

>  <alias>  (171) 
GGCJFFFLKXVZHT-UHFFFAOYSA-N-P60

>  <subsites>  (171) 


>  <placement_batch>  (171) 
CpKRS_FrAncestor_bulkdock_iter2

>  <name>  (171) 
GGCJFFFLKXVZHT-UHFFFAOYSA-N-P60

$$$$
PVEHOQFTPZKIHA-UHFFFAOYSA-N-P60
     RDKit          3D

 16 17  0  0  0  0  0  0  0  0999 V2000
   -3.6318  -25.5079   27.0733 C   0  0  0  0  0  0  0  0  0  0  0  0
   -2.7742  -25.6898   25.8580 C   0  0  0  0  0  0  0  0  0  0  0  0
   -1.9867  -24.6342   25.3911 C   0  0  0  0  0  0  0  0  0  0  0  0
   -1.1725  -24.8025   24.2721 C   0  0  0  0  0  0  0  0  0  0  0  0
   -1.1149  -26.0328   23.6224 C   0  0  0  0  0  0  0  0  0  0  0  0
   -1.9010  -27.1027   24.0670 C   0  0  0  0  0  0  0  0  0  0  0  0
   -1.8703  -28.4282   23.3274 C   0  0  0  0  0  0  0  0  0  0  0  0
   -0.6227  -29.1871   23.5131 N   0  0  0  0  0  0  0  0  0  0  0  0
   -0.4298  -29.5621   24.9273 C   0  0  0  0  0  0  0  0  0  0  0  0
   -1.3791  -30.6785   25.4029 C   0  0  0  0  0  0  0  0  0  0  0  0
   -1.5950  -31.7081   24.4272 O   0  0  0  0  0  0  0  0  0  0  0  0
   -0.5343  -31.7400   23.4666 C   0  0  0  0  0  0  0  0  0  0  0  0
   -0.4782  -30.4066   22.6469 C   0  0  0  0  0  0  0  0  0  0  0  0
    0.9211  -30.3055   22.0020 C   0  0  0  0  0  0  0  0  0  0  0  0
   -1.5006  -30.5248   21.4914 C   0  0  0  0  0  0  0  0  0  0  0  0
   -2.7237  -26.9219   25.1918 C   0  0  0  0  0  0  0  0  0  0  0  0
  1  2  1  0
  2  3  2  0
  3  4  1  0
  4  5  2  0
  5  6  1  0
  6  7  1  0
  7  8  1  0
  8  9  1  0
  9 10  1  0
 10 11  1  0
 11 12  1  0
 12 13  1  0
 13 14  1  0
 13 15  1  0
  6 16  2  0
 16  2  1  0
 13  8  1  0
M  END
>  <inchikey>  (172) 
PVEHOQFTPZKIHA-UHFFFAOYSA-N

>  <tags>  (172) 
fragmenstein_placed,CpKRS_FrAncestor_bulkdock_iter2

>  <ref_pdb>  (172) 
x0540b

>  <energy_score>  (172) 
-53.522227

>  <distance_score>  (172) 
0.365115

>  <HIPPO Pose ID>  (172) 
53245

>  <ref_mols>  (172) 
x0675b

>  <smiles>  (172) 
Cc1cccc(CN2CCOCC2(C)C)c1

>  <HIPPO Compound ID>  (172) 
142203

>  <alias>  (172) 
PVEHOQFTPZKIHA-UHFFFAOYSA-N-P60

>  <subsites>  (172) 


>  <placement_batch>  (172) 
CpKRS_FrAncestor_bulkdock_iter2

>  <name>  (172) 
PVEHOQFTPZKIHA-UHFFFAOYSA-N-P60

$$$$
LKFNBOFJYVAMDT-UHFFFAOYSA-N-P60
     RDKit          3D

 18 19  0  0  0  0  0  0  0  0999 V2000
   -3.6903  -25.4327   27.0665 C   0  0  0  0  0  0  0  0  0  0  0  0
   -2.8135  -25.6316   25.8683 C   0  0  0  0  0  0  0  0  0  0  0  0
   -1.9940  -24.5954   25.4159 C   0  0  0  0  0  0  0  0  0  0  0  0
   -1.1607  -24.7845   24.3140 C   0  0  0  0  0  0  0  0  0  0  0  0
   -1.1123  -26.0174   23.6689 C   0  0  0  0  0  0  0  0  0  0  0  0
   -1.9370  -27.0640   24.0940 C   0  0  0  0  0  0  0  0  0  0  0  0
   -1.9482  -28.3765   23.3397 C   0  0  0  0  0  0  0  0  0  0  0  0
   -0.8337  -29.2732   23.6567 N   0  0  0  0  0  0  0  0  0  0  0  0
   -0.8285  -29.7504   25.0482 C   0  0  0  0  0  0  0  0  0  0  0  0
   -1.5937  -31.0649   25.2379 C   0  0  0  0  0  0  0  0  0  0  0  0
   -1.1531  -32.1254   24.3795 O   0  0  0  0  0  0  0  0  0  0  0  0
   -0.1804  -31.6940   23.4156 C   0  0  0  0  0  0  0  0  0  0  0  0
   -0.6285  -30.4026   22.6717 C   0  0  1  0  0  0  0  0  0  0  0  0
   -1.8952  -30.7635   21.8506 C   0  0  0  0  0  0  0  0  0  0  0  0
    0.4969  -30.0469   21.6597 C   0  0  0  0  0  0  0  0  0  0  0  0
    0.1970  -28.8991   20.9974 F   0  0  0  0  0  0  0  0  0  0  0  0
    1.6753  -29.8432   22.3029 F   0  0  0  0  0  0  0  0  0  0  0  0
   -2.7798  -26.8620   25.2007 C   0  0  0  0  0  0  0  0  0  0  0  0
  1  2  1  0
  2  3  2  0
  3  4  1  0
  4  5  2  0
  5  6  1  0
  6  7  1  0
  7  8  1  0
  8  9  1  0
  9 10  1  0
 10 11  1  0
 11 12  1  0
 12 13  1  0
 13 14  1  6
 13 15  1  0
 15 16  1  0
 15 17  1  0
  6 18  2  0
 18  2  1  0
 13  8  1  0
M  END
>  <inchikey>  (173) 
LKFNBOFJYVAMDT-UHFFFAOYSA-N

>  <tags>  (173) 
fragmenstein_placed,CpKRS_FrAncestor_bulkdock_iter2

>  <ref_pdb>  (173) 
x0540b

>  <energy_score>  (173) 
-24.007147

>  <distance_score>  (173) 
0.423115

>  <HIPPO Pose ID>  (173) 
53247

>  <ref_mols>  (173) 
x0675b

>  <smiles>  (173) 
Cc1cccc(CN2CCOCC2(C)C(F)F)c1

>  <HIPPO Compound ID>  (173) 
447587

>  <alias>  (173) 
LKFNBOFJYVAMDT-UHFFFAOYSA-N-P60

>  <subsites>  (173) 


>  <placement_batch>  (173) 
CpKRS_FrAncestor_bulkdock_iter2

>  <name>  (173) 
LKFNBOFJYVAMDT-UHFFFAOYSA-N-P60

$$$$
FUTACBBVHBPTAU-UHFFFAOYSA-N-P60
     RDKit          3D

 17 18  0  0  0  0  0  0  0  0999 V2000
   -3.6534  -25.2881   26.9002 C   0  0  0  0  0  0  0  0  0  0  0  0
   -2.7667  -25.6221   25.7324 C   0  0  0  0  0  0  0  0  0  0  0  0
   -1.9430  -24.6178   25.2067 C   0  0  0  0  0  0  0  0  0  0  0  0
   -1.1098  -24.8794   24.1247 C   0  0  0  0  0  0  0  0  0  0  0  0
   -1.0711  -26.1528   23.5671 C   0  0  0  0  0  0  0  0  0  0  0  0
   -1.8855  -27.1881   24.0646 C   0  0  0  0  0  0  0  0  0  0  0  0
   -1.8089  -28.5394   23.3651 C   0  0  0  0  0  0  0  0  0  0  0  0
   -0.4922  -29.1857   23.5374 N   0  0  0  0  0  0  0  0  0  0  0  0
   -0.3090  -29.6584   24.9213 C   0  0  0  0  0  0  0  0  0  0  0  0
   -1.1994  -30.8478   25.3309 C   0  0  0  0  0  0  0  0  0  0  0  0
   -1.6697  -31.6187   24.2215 O   0  0  0  0  0  0  0  0  0  0  0  0
   -0.6856  -31.7236   23.1916 C   0  0  0  0  0  0  0  0  0  0  0  0
   -0.2553  -30.3429   22.6212 C   0  0  1  0  0  0  0  0  0  0  0  0
   -0.7315  -30.1897   21.1638 C   0  0  0  0  0  0  0  0  0  0  0  0
   -2.0861  -30.2933   21.0926 F   0  0  0  0  0  0  0  0  0  0  0  0
   -2.7323  -26.9103   25.1559 C   0  0  0  0  0  0  0  0  0  0  0  0
   -3.7595  -28.1427   25.8155 Cl  0  0  0  0  0  0  0  0  0  0  0  0
  1  2  1  0
  2  3  2  0
  3  4  1  0
  4  5  2  0
  5  6  1  0
  6  7  1  0
  7  8  1  0
  8  9  1  0
  9 10  1  0
 10 11  1  0
 11 12  1  0
 12 13  1  0
 13 14  1  6
 14 15  1  0
  6 16  2  0
 16 17  1  0
 16  2  1  0
 13  8  1  0
M  END
>  <inchikey>  (174) 
FUTACBBVHBPTAU-UHFFFAOYSA-N

>  <tags>  (174) 
fragmenstein_placed,CpKRS_FrAncestor_bulkdock_iter2

>  <ref_pdb>  (174) 
x0540b

>  <energy_score>  (174) 
-15.844199

>  <distance_score>  (174) 
0.43021

>  <HIPPO Pose ID>  (174) 
53249

>  <ref_mols>  (174) 
x0675b

>  <smiles>  (174) 
Cc1cccc(CN2CCOCC2CF)c1Cl

>  <HIPPO Compound ID>  (174) 
447588

>  <alias>  (174) 
FUTACBBVHBPTAU-UHFFFAOYSA-N-P60

>  <subsites>  (174) 


>  <placement_batch>  (174) 
CpKRS_FrAncestor_bulkdock_iter2

>  <name>  (174) 
FUTACBBVHBPTAU-UHFFFAOYSA-N-P60

$$$$
ZEOXLQFBGQBZAL-UHFFFAOYSA-N-P60
     RDKit          3D

 17 18  0  0  0  0  0  0  0  0999 V2000
   -3.6914  -25.2728   26.8086 C   0  0  0  0  0  0  0  0  0  0  0  0
   -2.7899  -25.6367   25.6596 C   0  0  0  0  0  0  0  0  0  0  0  0
   -1.9220  -24.6544   25.1633 C   0  0  0  0  0  0  0  0  0  0  0  0
   -1.0609  -24.9353   24.1117 C   0  0  0  0  0  0  0  0  0  0  0  0
   -1.0292  -26.2110   23.5648 C   0  0  0  0  0  0  0  0  0  0  0  0
   -1.9001  -27.2199   24.0191 C   0  0  0  0  0  0  0  0  0  0  0  0
   -1.7788  -28.5804   23.3430 C   0  0  0  0  0  0  0  0  0  0  0  0
   -0.5700  -29.3208   23.7526 N   0  0  0  0  0  0  0  0  0  0  0  0
   -0.6565  -29.7862   25.1463 C   0  0  0  0  0  0  0  0  0  0  0  0
   -1.6173  -30.9681   25.3771 C   0  0  0  0  0  0  0  0  0  0  0  0
   -1.6219  -31.9355   24.3222 O   0  0  0  0  0  0  0  0  0  0  0  0
   -0.4315  -31.8633   23.5337 C   0  0  0  0  0  0  0  0  0  0  0  0
   -0.3143  -30.4808   22.8464 C   0  0  2  0  0  0  0  0  0  0  0  0
    1.0832  -30.3536   22.2285 C   0  0  0  0  0  0  0  0  0  0  0  0
    1.3492  -31.4660   21.4886 F   0  0  0  0  0  0  0  0  0  0  0  0
   -2.8173  -26.9220   25.0605 C   0  0  0  0  0  0  0  0  0  0  0  0
   -3.7872  -27.9548   25.5788 C   0  0  0  0  0  0  0  0  0  0  0  0
  1  2  1  0
  2  3  2  0
  3  4  1  0
  4  5  2  0
  5  6  1  0
  6  7  1  0
  7  8  1  0
  8  9  1  0
  9 10  1  0
 10 11  1  0
 11 12  1  0
 12 13  1  0
 13 14  1  1
 14 15  1  0
  6 16  2  0
 16 17  1  0
 16  2  1  0
 13  8  1  0
M  END
>  <inchikey>  (175) 
ZEOXLQFBGQBZAL-UHFFFAOYSA-N

>  <tags>  (175) 
fragmenstein_placed,CpKRS_FrAncestor_bulkdock_iter2

>  <ref_pdb>  (175) 
x0540b

>  <energy_score>  (175) 
-34.351555

>  <distance_score>  (175) 
0.374236

>  <HIPPO Pose ID>  (175) 
53251

>  <ref_mols>  (175) 
x0675b

>  <smiles>  (175) 
Cc1cccc(CN2CCOCC2CF)c1C

>  <HIPPO Compound ID>  (175) 
447589

>  <alias>  (175) 
ZEOXLQFBGQBZAL-UHFFFAOYSA-N-P60

>  <subsites>  (175) 


>  <placement_batch>  (175) 
CpKRS_FrAncestor_bulkdock_iter2

>  <name>  (175) 
ZEOXLQFBGQBZAL-UHFFFAOYSA-N-P60

$$$$
GAZDDAAJZJSWRP-UHFFFAOYSA-N-P60
     RDKit          3D

 16 17  0  0  0  0  0  0  0  0999 V2000
   -3.5613  -25.5078   27.0675 C   0  0  0  0  0  0  0  0  0  0  0  0
   -2.7165  -25.7141   25.8467 C   0  0  0  0  0  0  0  0  0  0  0  0
   -1.9382  -24.6669   25.3463 C   0  0  0  0  0  0  0  0  0  0  0  0
   -1.1420  -24.8563   24.2175 C   0  0  0  0  0  0  0  0  0  0  0  0
   -1.0952  -26.0992   23.5901 C   0  0  0  0  0  0  0  0  0  0  0  0
   -1.8695  -27.1623   24.0709 C   0  0  0  0  0  0  0  0  0  0  0  0
   -1.8563  -28.5013   23.3571 C   0  0  0  0  0  0  0  0  0  0  0  0
   -0.5806  -29.2308   23.4762 N   0  0  0  0  0  0  0  0  0  0  0  0
   -0.2725  -29.5558   24.8818 C   0  0  0  0  0  0  0  0  0  0  0  0
   -1.2561  -30.5582   25.5187 C   0  0  0  0  0  0  0  0  0  0  0  0
   -1.8048  -31.4905   24.5766 O   0  0  0  0  0  0  0  0  0  0  0  0
   -0.8725  -31.7784   23.5290 C   0  0  0  0  0  0  0  0  0  0  0  0
   -0.5409  -30.5091   22.6900 C   0  0  1  0  0  0  0  0  0  0  0  0
   -1.3407  -30.5403   21.3757 C   0  0  0  0  0  0  0  0  0  0  0  0
   -1.0647  -31.6967   20.7086 F   0  0  0  0  0  0  0  0  0  0  0  0
   -2.6723  -26.9601   25.2063 C   0  0  0  0  0  0  0  0  0  0  0  0
  1  2  1  0
  2  3  2  0
  3  4  1  0
  4  5  2  0
  5  6  1  0
  6  7  1  0
  7  8  1  0
  8  9  1  0
  9 10  1  0
 10 11  1  0
 11 12  1  0
 12 13  1  0
 13 14  1  6
 14 15  1  0
  6 16  2  0
 16  2  1  0
 13  8  1  0
M  END
>  <inchikey>  (176) 
GAZDDAAJZJSWRP-UHFFFAOYSA-N

>  <tags>  (176) 
fragmenstein_placed,CpKRS_FrAncestor_bulkdock_iter2

>  <ref_pdb>  (176) 
x0540b

>  <energy_score>  (176) 
-42.841744

>  <distance_score>  (176) 
0.402033

>  <HIPPO Pose ID>  (176) 
53253

>  <ref_mols>  (176) 
x0675b

>  <smiles>  (176) 
Cc1cccc(CN2CCOCC2CF)c1

>  <HIPPO Compound ID>  (176) 
142269

>  <alias>  (176) 
GAZDDAAJZJSWRP-UHFFFAOYSA-N-P60

>  <subsites>  (176) 


>  <placement_batch>  (176) 
CpKRS_FrAncestor_bulkdock_iter2

>  <name>  (176) 
GAZDDAAJZJSWRP-UHFFFAOYSA-N-P60

$$$$
BRTFPPIABZLZEL-UHFFFAOYSA-N-P60
     RDKit          3D

 17 18  0  0  0  0  0  0  0  0999 V2000
   -3.7112  -25.4386   27.0876 C   0  0  0  0  0  0  0  0  0  0  0  0
   -2.8285  -25.6201   25.8910 C   0  0  0  0  0  0  0  0  0  0  0  0
   -2.0203  -24.5718   25.4463 C   0  0  0  0  0  0  0  0  0  0  0  0
   -1.1874  -24.7430   24.3412 C   0  0  0  0  0  0  0  0  0  0  0  0
   -1.1266  -25.9707   23.6871 C   0  0  0  0  0  0  0  0  0  0  0  0
   -1.9372  -27.0310   24.1072 C   0  0  0  0  0  0  0  0  0  0  0  0
   -1.9317  -28.3427   23.3478 C   0  0  0  0  0  0  0  0  0  0  0  0
   -0.8047  -29.2248   23.6787 N   0  0  0  0  0  0  0  0  0  0  0  0
   -0.8431  -29.7233   25.0665 C   0  0  0  0  0  0  0  0  0  0  0  0
   -1.5903  -31.0531   25.2214 C   0  0  0  0  0  0  0  0  0  0  0  0
   -1.0575  -32.1077   24.4093 O   0  0  0  0  0  0  0  0  0  0  0  0
   -0.1427  -31.6382   23.4135 C   0  0  0  0  0  0  0  0  0  0  0  0
   -0.6386  -30.3609   22.6973 C   0  0  1  0  0  0  0  0  0  0  0  0
   -1.8268  -30.7779   21.7855 C   0  0  0  0  0  0  0  0  0  0  0  0
   -2.9507  -31.0138   22.5086 F   0  0  0  0  0  0  0  0  0  0  0  0
   -2.1378  -29.7860   20.9116 F   0  0  0  0  0  0  0  0  0  0  0  0
   -2.7821  -26.8452   25.2147 C   0  0  0  0  0  0  0  0  0  0  0  0
  1  2  1  0
  2  3  2  0
  3  4  1  0
  4  5  2  0
  5  6  1  0
  6  7  1  0
  7  8  1  0
  8  9  1  0
  9 10  1  0
 10 11  1  0
 11 12  1  0
 12 13  1  0
 13 14  1  1
 14 15  1  0
 14 16  1  0
  6 17  2  0
 17  2  1  0
 13  8  1  0
M  END
>  <inchikey>  (177) 
BRTFPPIABZLZEL-UHFFFAOYSA-N

>  <tags>  (177) 
fragmenstein_placed,CpKRS_FrAncestor_bulkdock_iter2

>  <ref_pdb>  (177) 
x0540b

>  <energy_score>  (177) 
-21.057692

>  <distance_score>  (177) 
0.433383

>  <HIPPO Pose ID>  (177) 
53255

>  <ref_mols>  (177) 
x0675b

>  <smiles>  (177) 
Cc1cccc(CN2CCOCC2C(F)F)c1

>  <HIPPO Compound ID>  (177) 
447590

>  <alias>  (177) 
BRTFPPIABZLZEL-UHFFFAOYSA-N-P60

>  <subsites>  (177) 


>  <placement_batch>  (177) 
CpKRS_FrAncestor_bulkdock_iter2

>  <name>  (177) 
BRTFPPIABZLZEL-UHFFFAOYSA-N-P60

$$$$
BNLHDGMMDKRCCF-UHFFFAOYSA-N-P60
     RDKit          3D

 18 19  0  0  0  0  0  0  0  0999 V2000
   -3.5127  -25.5297   27.1188 C   0  0  0  0  0  0  0  0  0  0  0  0
   -2.7017  -25.7162   25.8723 C   0  0  0  0  0  0  0  0  0  0  0  0
   -1.9385  -24.6595   25.3685 C   0  0  0  0  0  0  0  0  0  0  0  0
   -1.1676  -24.8297   24.2195 C   0  0  0  0  0  0  0  0  0  0  0  0
   -1.1315  -26.0637   23.5750 C   0  0  0  0  0  0  0  0  0  0  0  0
   -1.8893  -27.1367   24.0612 C   0  0  0  0  0  0  0  0  0  0  0  0
   -1.8769  -28.4690   23.3378 C   0  0  0  0  0  0  0  0  0  0  0  0
   -0.5899  -29.1822   23.4396 N   0  0  0  0  0  0  0  0  0  0  0  0
   -0.2665  -29.5347   24.8336 C   0  0  0  0  0  0  0  0  0  0  0  0
   -1.2127  -30.5845   25.4461 C   0  0  0  0  0  0  0  0  0  0  0  0
   -1.6831  -31.5498   24.4956 O   0  0  0  0  0  0  0  0  0  0  0  0
   -0.7545  -31.7377   23.4241 C   0  0  0  0  0  0  0  0  0  0  0  0
   -0.5486  -30.4395   22.5972 C   0  0  1  0  0  0  0  0  0  0  0  0
   -1.4187  -30.5406   21.3186 C   0  0  0  0  0  0  0  0  0  0  0  0
   -2.7398  -30.5952   21.6064 F   0  0  0  0  0  0  0  0  0  0  0  0
   -1.1172  -31.6572   20.6128 F   0  0  0  0  0  0  0  0  0  0  0  0
   -1.2263  -29.4862   20.4939 F   0  0  0  0  0  0  0  0  0  0  0  0
   -2.6680  -26.9531   25.2156 C   0  0  0  0  0  0  0  0  0  0  0  0
  1  2  1  0
  2  3  2  0
  3  4  1  0
  4  5  2  0
  5  6  1  0
  6  7  1  0
  7  8  1  0
  8  9  1  0
  9 10  1  0
 10 11  1  0
 11 12  1  0
 12 13  1  0
 13 14  1  6
 14 15  1  0
 14 16  1  0
 14 17  1  0
  6 18  2  0
 18  2  1  0
 13  8  1  0
M  END
>  <inchikey>  (178) 
BNLHDGMMDKRCCF-UHFFFAOYSA-N

>  <tags>  (178) 
fragmenstein_placed,CpKRS_FrAncestor_bulkdock_iter2

>  <ref_pdb>  (178) 
x0540b

>  <energy_score>  (178) 
-24.410834

>  <distance_score>  (178) 
0.412942

>  <HIPPO Pose ID>  (178) 
53257

>  <ref_mols>  (178) 
x0675b

>  <smiles>  (178) 
Cc1cccc(CN2CCOCC2C(F)(F)F)c1

>  <HIPPO Compound ID>  (178) 
447591

>  <alias>  (178) 
BNLHDGMMDKRCCF-UHFFFAOYSA-N-P60

>  <subsites>  (178) 


>  <placement_batch>  (178) 
CpKRS_FrAncestor_bulkdock_iter2

>  <name>  (178) 
BNLHDGMMDKRCCF-UHFFFAOYSA-N-P60

$$$$
MLTCAJBDHIQANJ-UHFFFAOYSA-N-P60
     RDKit          3D

 17 18  0  0  0  0  0  0  0  0999 V2000
   -3.6482  -25.2993   26.8565 C   0  0  0  0  0  0  0  0  0  0  0  0
   -2.7429  -25.6516   25.7074 C   0  0  0  0  0  0  0  0  0  0  0  0
   -1.9224  -24.6456   25.1787 C   0  0  0  0  0  0  0  0  0  0  0  0
   -1.0647  -24.9124   24.1175 C   0  0  0  0  0  0  0  0  0  0  0  0
   -0.9930  -26.1940   23.5836 C   0  0  0  0  0  0  0  0  0  0  0  0
   -1.8064  -27.2310   24.0762 C   0  0  0  0  0  0  0  0  0  0  0  0
   -1.6821  -28.5893   23.4030 C   0  0  0  0  0  0  0  0  0  0  0  0
   -0.4094  -29.2758   23.7112 N   0  0  0  0  0  0  0  0  0  0  0  0
   -0.3905  -29.7842   25.0989 C   0  0  0  0  0  0  0  0  0  0  0  0
   -1.0114  -31.1770   25.3245 C   0  0  0  0  0  0  0  0  0  0  0  0
   -1.8738  -31.5611   24.2546 O   0  0  0  0  0  0  0  0  0  0  0  0
   -1.1781  -31.5944   22.9961 C   0  0  0  0  0  0  0  0  0  0  0  0
   -0.1870  -30.4165   22.7776 C   0  0  2  0  0  0  0  0  0  0  0  0
    1.2065  -30.9450   22.8552 C   0  0  0  0  0  0  0  0  0  0  0  0
    2.2708  -31.4066   22.9294 N   0  0  0  0  0  0  0  0  0  0  0  0
   -2.6849  -26.9472   25.1464 C   0  0  0  0  0  0  0  0  0  0  0  0
   -3.8255  -28.3081   25.8600 Br  0  0  0  0  0  0  0  0  0  0  0  0
  1  2  1  0
  2  3  2  0
  3  4  1  0
  4  5  2  0
  5  6  1  0
  6  7  1  0
  7  8  1  0
  8  9  1  0
  9 10  1  0
 10 11  1  0
 11 12  1  0
 12 13  1  0
 13 14  1  1
 14 15  3  0
  6 16  2  0
 16 17  1  0
 16  2  1  0
 13  8  1  0
M  END
>  <inchikey>  (179) 
MLTCAJBDHIQANJ-UHFFFAOYSA-N

>  <tags>  (179) 
fragmenstein_placed,CpKRS_FrAncestor_bulkdock_iter2

>  <ref_pdb>  (179) 
x0540b

>  <energy_score>  (179) 
-37.664267

>  <distance_score>  (179) 
0.495185

>  <HIPPO Pose ID>  (179) 
53259

>  <ref_mols>  (179) 
x0675b

>  <smiles>  (179) 
Cc1cccc(CN2CCOCC2C#N)c1Br

>  <HIPPO Compound ID>  (179) 
447592

>  <alias>  (179) 
MLTCAJBDHIQANJ-UHFFFAOYSA-N-P60

>  <subsites>  (179) 


>  <placement_batch>  (179) 
CpKRS_FrAncestor_bulkdock_iter2

>  <name>  (179) 
MLTCAJBDHIQANJ-UHFFFAOYSA-N-P60

$$$$
KUCNQVKHVSHHHJ-UHFFFAOYSA-N-P60
     RDKit          3D

 17 18  0  0  0  0  0  0  0  0999 V2000
   -3.6298  -25.3227   26.8700 C   0  0  0  0  0  0  0  0  0  0  0  0
   -2.7288  -25.6516   25.7115 C   0  0  0  0  0  0  0  0  0  0  0  0
   -1.9217  -24.6380   25.1786 C   0  0  0  0  0  0  0  0  0  0  0  0
   -1.0694  -24.8985   24.1103 C   0  0  0  0  0  0  0  0  0  0  0  0
   -0.9914  -26.1795   23.5734 C   0  0  0  0  0  0  0  0  0  0  0  0
   -1.7924  -27.2212   24.0737 C   0  0  0  0  0  0  0  0  0  0  0  0
   -1.6772  -28.5838   23.4099 C   0  0  0  0  0  0  0  0  0  0  0  0
   -0.4093  -29.2753   23.7247 N   0  0  0  0  0  0  0  0  0  0  0  0
   -0.4090  -29.7949   25.1087 C   0  0  0  0  0  0  0  0  0  0  0  0
   -1.0484  -31.1817   25.3189 C   0  0  0  0  0  0  0  0  0  0  0  0
   -1.8918  -31.5572   24.2310 O   0  0  0  0  0  0  0  0  0  0  0  0
   -1.1736  -31.5893   22.9857 C   0  0  0  0  0  0  0  0  0  0  0  0
   -0.1803  -30.4104   22.7857 C   0  0  2  0  0  0  0  0  0  0  0  0
    1.2121  -30.9406   22.8716 C   0  0  0  0  0  0  0  0  0  0  0  0
    2.2758  -31.4030   22.9503 N   0  0  0  0  0  0  0  0  0  0  0  0
   -2.6611  -26.9450   25.1513 C   0  0  0  0  0  0  0  0  0  0  0  0
   -3.6691  -28.1961   25.8138 Cl  0  0  0  0  0  0  0  0  0  0  0  0
  1  2  1  0
  2  3  2  0
  3  4  1  0
  4  5  2  0
  5  6  1  0
  6  7  1  0
  7  8  1  0
  8  9  1  0
  9 10  1  0
 10 11  1  0
 11 12  1  0
 12 13  1  0
 13 14  1  1
 14 15  3  0
  6 16  2  0
 16 17  1  0
 16  2  1  0
 13  8  1  0
M  END
>  <inchikey>  (180) 
KUCNQVKHVSHHHJ-UHFFFAOYSA-N

>  <tags>  (180) 
fragmenstein_placed,CpKRS_FrAncestor_bulkdock_iter2

>  <ref_pdb>  (180) 
x0540b

>  <energy_score>  (180) 
-25.180479

>  <distance_score>  (180) 
0.48861

>  <HIPPO Pose ID>  (180) 
53261

>  <ref_mols>  (180) 
x0675b

>  <smiles>  (180) 
Cc1cccc(CN2CCOCC2C#N)c1Cl

>  <HIPPO Compound ID>  (180) 
447593

>  <alias>  (180) 
KUCNQVKHVSHHHJ-UHFFFAOYSA-N-P60

>  <subsites>  (180) 


>  <placement_batch>  (180) 
CpKRS_FrAncestor_bulkdock_iter2

>  <name>  (180) 
KUCNQVKHVSHHHJ-UHFFFAOYSA-N-P60

$$$$
CBIZBMHTHXWHQM-UHFFFAOYSA-N-P60
     RDKit          3D

 17 18  0  0  0  0  0  0  0  0999 V2000
   -3.7656  -25.1702   26.9138 C   0  0  0  0  0  0  0  0  0  0  0  0
   -2.8501  -25.5529   25.7829 C   0  0  0  0  0  0  0  0  0  0  0  0
   -1.9641  -24.5842   25.2931 C   0  0  0  0  0  0  0  0  0  0  0  0
   -1.1117  -24.8695   24.2340 C   0  0  0  0  0  0  0  0  0  0  0  0
   -1.1144  -26.1336   23.6616 C   0  0  0  0  0  0  0  0  0  0  0  0
   -1.9976  -27.1273   24.1182 C   0  0  0  0  0  0  0  0  0  0  0  0
   -2.0060  -28.4475   23.3645 C   0  0  0  0  0  0  0  0  0  0  0  0
   -0.8396  -29.3028   23.6341 N   0  0  0  0  0  0  0  0  0  0  0  0
   -0.7524  -29.7695   25.0285 C   0  0  0  0  0  0  0  0  0  0  0  0
   -1.4418  -31.1179   25.2575 C   0  0  0  0  0  0  0  0  0  0  0  0
   -0.8850  -32.1741   24.4669 O   0  0  0  0  0  0  0  0  0  0  0  0
   -0.1208  -31.7086   23.3408 C   0  0  0  0  0  0  0  0  0  0  0  0
   -0.7169  -30.4491   22.6669 C   0  0  1  0  0  0  0  0  0  0  0  0
   -1.9662  -30.8669   21.9697 C   0  0  0  0  0  0  0  0  0  0  0  0
   -2.9539  -31.1663   21.4357 N   0  0  0  0  0  0  0  0  0  0  0  0
   -2.8617  -26.8469   25.2095 C   0  0  0  0  0  0  0  0  0  0  0  0
   -3.8580  -27.8687   25.7034 C   0  0  0  0  0  0  0  0  0  0  0  0
  1  2  1  0
  2  3  2  0
  3  4  1  0
  4  5  2  0
  5  6  1  0
  6  7  1  0
  7  8  1  0
  8  9  1  0
  9 10  1  0
 10 11  1  0
 11 12  1  0
 12 13  1  0
 13 14  1  1
 14 15  3  0
  6 16  2  0
 16 17  1  0
 16  2  1  0
 13  8  1  0
M  END
>  <inchikey>  (181) 
CBIZBMHTHXWHQM-UHFFFAOYSA-N

>  <tags>  (181) 
fragmenstein_placed,CpKRS_FrAncestor_bulkdock_iter2

>  <ref_pdb>  (181) 
x0540b

>  <energy_score>  (181) 
-20.286497

>  <distance_score>  (181) 
0.502678

>  <HIPPO Pose ID>  (181) 
53263

>  <ref_mols>  (181) 
x0675b

>  <smiles>  (181) 
Cc1cccc(CN2CCOCC2C#N)c1C

>  <HIPPO Compound ID>  (181) 
447594

>  <alias>  (181) 
CBIZBMHTHXWHQM-UHFFFAOYSA-N-P60

>  <subsites>  (181) 


>  <placement_batch>  (181) 
CpKRS_FrAncestor_bulkdock_iter2

>  <name>  (181) 
CBIZBMHTHXWHQM-UHFFFAOYSA-N-P60

$$$$
FVQMALBWKCPOQG-UHFFFAOYSA-N-P60
     RDKit          3D

 16 17  0  0  0  0  0  0  0  0999 V2000
   -3.6029  -25.5236   26.9467 C   0  0  0  0  0  0  0  0  0  0  0  0
   -2.7136  -25.7314   25.7572 C   0  0  0  0  0  0  0  0  0  0  0  0
   -1.9312  -24.6789   25.2761 C   0  0  0  0  0  0  0  0  0  0  0  0
   -1.0815  -24.8737   24.1887 C   0  0  0  0  0  0  0  0  0  0  0  0
   -0.9749  -26.1283   23.5918 C   0  0  0  0  0  0  0  0  0  0  0  0
   -1.7548  -27.1979   24.0482 C   0  0  0  0  0  0  0  0  0  0  0  0
   -1.6584  -28.5507   23.3662 C   0  0  0  0  0  0  0  0  0  0  0  0
   -0.5385  -29.3772   23.8569 N   0  0  0  0  0  0  0  0  0  0  0  0
   -0.7732  -29.8599   25.2287 C   0  0  0  0  0  0  0  0  0  0  0  0
   -1.9467  -30.8488   25.3744 C   0  0  0  0  0  0  0  0  0  0  0  0
   -2.2178  -31.5873   24.1758 O   0  0  0  0  0  0  0  0  0  0  0  0
   -1.0147  -31.8598   23.4509 C   0  0  0  0  0  0  0  0  0  0  0  0
   -0.3117  -30.5595   22.9668 C   0  0  2  0  0  0  0  0  0  0  0  0
    1.1355  -30.8796   22.8371 C   0  0  0  0  0  0  0  0  0  0  0  0
    2.2448  -31.2179   22.7630 N   0  0  0  0  0  0  0  0  0  0  0  0
   -2.6222  -26.9857   25.1349 C   0  0  0  0  0  0  0  0  0  0  0  0
  1  2  1  0
  2  3  2  0
  3  4  1  0
  4  5  2  0
  5  6  1  0
  6  7  1  0
  7  8  1  0
  8  9  1  0
  9 10  1  0
 10 11  1  0
 11 12  1  0
 12 13  1  0
 13 14  1  1
 14 15  3  0
  6 16  2  0
 16  2  1  0
 13  8  1  0
M  END
>  <inchikey>  (182) 
FVQMALBWKCPOQG-UHFFFAOYSA-N

>  <tags>  (182) 
fragmenstein_placed,CpKRS_FrAncestor_bulkdock_iter2

>  <ref_pdb>  (182) 
x0540b

>  <energy_score>  (182) 
-19.914735

>  <distance_score>  (182) 
0.36499

>  <HIPPO Pose ID>  (182) 
53265

>  <ref_mols>  (182) 
x0675b

>  <smiles>  (182) 
Cc1cccc(CN2CCOCC2C#N)c1

>  <HIPPO Compound ID>  (182) 
139828

>  <alias>  (182) 
FVQMALBWKCPOQG-UHFFFAOYSA-N-P60

>  <subsites>  (182) 


>  <placement_batch>  (182) 
CpKRS_FrAncestor_bulkdock_iter2

>  <name>  (182) 
FVQMALBWKCPOQG-UHFFFAOYSA-N-P60

$$$$
CPQHQVUASLKUQT-UHFFFAOYSA-N-P60
     RDKit          3D

 16 17  0  0  0  0  0  0  0  0999 V2000
   -3.7502  -25.1707   26.8809 C   0  0  0  0  0  0  0  0  0  0  0  0
   -2.8442  -25.5450   25.7408 C   0  0  0  0  0  0  0  0  0  0  0  0
   -1.9709  -24.5694   25.2411 C   0  0  0  0  0  0  0  0  0  0  0  0
   -1.1102  -24.8567   24.1879 C   0  0  0  0  0  0  0  0  0  0  0  0
   -1.0888  -26.1303   23.6336 C   0  0  0  0  0  0  0  0  0  0  0  0
   -1.9608  -27.1330   24.0942 C   0  0  0  0  0  0  0  0  0  0  0  0
   -1.9146  -28.4690   23.3787 C   0  0  0  0  0  0  0  0  0  0  0  0
   -0.7312  -29.2837   23.7058 N   0  0  0  0  0  0  0  0  0  0  0  0
   -0.7557  -29.8081   25.0839 C   0  0  0  0  0  0  0  0  0  0  0  0
   -1.5323  -31.1251   25.2192 C   0  0  0  0  0  0  0  0  0  0  0  0
   -1.0302  -32.1801   24.3880 O   0  0  0  0  0  0  0  0  0  0  0  0
   -0.1241  -31.7205   23.3693 C   0  0  1  0  0  0  0  0  0  0  0  0
   -0.0062  -32.8243   22.3258 C   0  0  0  0  0  0  0  0  0  0  0  0
   -0.6233  -30.4048   22.7350 C   0  0  0  0  0  0  0  0  0  0  0  0
   -2.8378  -26.8306   25.1589 C   0  0  0  0  0  0  0  0  0  0  0  0
   -4.0567  -28.1459   25.8281 Br  0  0  0  0  0  0  0  0  0  0  0  0
  1  2  1  0
  2  3  2  0
  3  4  1  0
  4  5  2  0
  5  6  1  0
  6  7  1  0
  7  8  1  0
  8  9  1  0
  9 10  1  0
 10 11  1  0
 11 12  1  0
 12 13  1  6
 12 14  1  0
  6 15  2  0
 15 16  1  0
 15  2  1  0
 14  8  1  0
M  END
>  <inchikey>  (183) 
CPQHQVUASLKUQT-UHFFFAOYSA-N

>  <tags>  (183) 
fragmenstein_placed,CpKRS_FrAncestor_bulkdock_iter2

>  <ref_pdb>  (183) 
x0540b

>  <energy_score>  (183) 
-22.802647

>  <distance_score>  (183) 
0.464602

>  <HIPPO Pose ID>  (183) 
53269

>  <ref_mols>  (183) 
x0675b

>  <smiles>  (183) 
Cc1cccc(CN2CCOC(C)C2)c1Br

>  <HIPPO Compound ID>  (183) 
139671

>  <alias>  (183) 
CPQHQVUASLKUQT-UHFFFAOYSA-N-P60

>  <subsites>  (183) 


>  <placement_batch>  (183) 
CpKRS_FrAncestor_bulkdock_iter2

>  <name>  (183) 
CPQHQVUASLKUQT-UHFFFAOYSA-N-P60

$$$$
MMGVBPXJLTTXSZ-UHFFFAOYSA-N-P60
     RDKit          3D

 16 17  0  0  0  0  0  0  0  0999 V2000
   -3.7351  -25.1723   26.9065 C   0  0  0  0  0  0  0  0  0  0  0  0
   -2.8354  -25.5522   25.7618 C   0  0  0  0  0  0  0  0  0  0  0  0
   -1.9586  -24.5805   25.2613 C   0  0  0  0  0  0  0  0  0  0  0  0
   -1.1087  -24.8672   24.2010 C   0  0  0  0  0  0  0  0  0  0  0  0
   -1.1036  -26.1367   23.6408 C   0  0  0  0  0  0  0  0  0  0  0  0
   -1.9766  -27.1350   24.1086 C   0  0  0  0  0  0  0  0  0  0  0  0
   -1.9543  -28.4666   23.3783 C   0  0  0  0  0  0  0  0  0  0  0  0
   -0.7778  -29.3001   23.6792 N   0  0  0  0  0  0  0  0  0  0  0  0
   -0.7263  -30.4416   22.7332 C   0  0  0  0  0  0  0  0  0  0  0  0
   -0.1805  -31.7292   23.3667 C   0  0  0  0  0  0  0  0  0  0  0  0
   -0.9971  -32.1833   24.4559 O   0  0  0  0  0  0  0  0  0  0  0  0
   -1.5129  -31.1123   25.2643 C   0  0  1  0  0  0  0  0  0  0  0  0
   -1.4619  -31.5685   26.7165 C   0  0  0  0  0  0  0  0  0  0  0  0
   -0.7460  -29.7876   25.0708 C   0  0  0  0  0  0  0  0  0  0  0  0
   -2.8413  -26.8506   25.1975 C   0  0  0  0  0  0  0  0  0  0  0  0
   -3.8266  -27.8722   25.7103 C   0  0  0  0  0  0  0  0  0  0  0  0
  1  2  1  0
  2  3  2  0
  3  4  1  0
  4  5  2  0
  5  6  1  0
  6  7  1  0
  7  8  1  0
  8  9  1  0
  9 10  1  0
 10 11  1  0
 11 12  1  0
 12 13  1  1
 12 14  1  0
  6 15  2  0
 15 16  1  0
 15  2  1  0
 14  8  1  0
M  END
>  <inchikey>  (184) 
MMGVBPXJLTTXSZ-UHFFFAOYSA-N

>  <tags>  (184) 
fragmenstein_placed,CpKRS_FrAncestor_bulkdock_iter2

>  <ref_pdb>  (184) 
x0540b

>  <energy_score>  (184) 
-31.5317

>  <distance_score>  (184) 
0.469678

>  <HIPPO Pose ID>  (184) 
53273

>  <ref_mols>  (184) 
x0675b

>  <smiles>  (184) 
Cc1cccc(CN2CCOC(C)C2)c1C

>  <HIPPO Compound ID>  (184) 
139686

>  <alias>  (184) 
MMGVBPXJLTTXSZ-UHFFFAOYSA-N-P60

>  <subsites>  (184) 


>  <placement_batch>  (184) 
CpKRS_FrAncestor_bulkdock_iter2

>  <name>  (184) 
MMGVBPXJLTTXSZ-UHFFFAOYSA-N-P60

$$$$
XCQHTVWIUSXZOL-UHFFFAOYSA-N-P60
     RDKit          3D

 15 16  0  0  0  0  0  0  0  0999 V2000
   -3.6348  -25.4283   27.0601 C   0  0  0  0  0  0  0  0  0  0  0  0
   -2.7832  -25.6201   25.8424 C   0  0  0  0  0  0  0  0  0  0  0  0
   -1.9880  -24.5750   25.3677 C   0  0  0  0  0  0  0  0  0  0  0  0
   -1.1705  -24.7591   24.2531 C   0  0  0  0  0  0  0  0  0  0  0  0
   -1.1139  -25.9972   23.6178 C   0  0  0  0  0  0  0  0  0  0  0  0
   -1.9105  -27.0550   24.0688 C   0  0  0  0  0  0  0  0  0  0  0  0
   -1.8926  -28.3852   23.3495 C   0  0  0  0  0  0  0  0  0  0  0  0
   -0.7564  -29.2510   23.7039 N   0  0  0  0  0  0  0  0  0  0  0  0
   -0.7042  -30.3992   22.7644 C   0  0  0  0  0  0  0  0  0  0  0  0
   -0.2626  -31.7110   23.4289 C   0  0  0  0  0  0  0  0  0  0  0  0
   -1.1641  -32.1163   24.4692 O   0  0  0  0  0  0  0  0  0  0  0  0
   -1.6468  -31.0192   25.2635 C   0  0  1  0  0  0  0  0  0  0  0  0
   -1.6625  -31.4786   26.7159 C   0  0  0  0  0  0  0  0  0  0  0  0
   -0.8065  -29.7365   25.0968 C   0  0  0  0  0  0  0  0  0  0  0  0
   -2.7400  -26.8555   25.1857 C   0  0  0  0  0  0  0  0  0  0  0  0
  1  2  1  0
  2  3  2  0
  3  4  1  0
  4  5  2  0
  5  6  1  0
  6  7  1  0
  7  8  1  0
  8  9  1  0
  9 10  1  0
 10 11  1  0
 11 12  1  0
 12 13  1  1
 12 14  1  0
  6 15  2  0
 15  2  1  0
 14  8  1  0
M  END
>  <inchikey>  (185) 
XCQHTVWIUSXZOL-UHFFFAOYSA-N

>  <tags>  (185) 
fragmenstein_placed,CpKRS_FrAncestor_bulkdock_iter2

>  <ref_pdb>  (185) 
x0540b

>  <energy_score>  (185) 
-30.326758

>  <distance_score>  (185) 
0.395419

>  <HIPPO Pose ID>  (185) 
53275

>  <ref_mols>  (185) 
x0675b

>  <smiles>  (185) 
Cc1cccc(CN2CCOC(C)C2)c1

>  <HIPPO Compound ID>  (185) 
322685

>  <alias>  (185) 
XCQHTVWIUSXZOL-UHFFFAOYSA-N-P60

>  <subsites>  (185) 


>  <placement_batch>  (185) 
CpKRS_FrAncestor_bulkdock_iter2

>  <name>  (185) 
XCQHTVWIUSXZOL-UHFFFAOYSA-N-P60

$$$$
JVUHBQQRQZGLPI-UHFFFAOYSA-N-P60
     RDKit          3D

 17 18  0  0  0  0  0  0  0  0999 V2000
   -3.6175  -25.5204   27.0885 C   0  0  0  0  0  0  0  0  0  0  0  0
   -2.7627  -25.6980   25.8704 C   0  0  0  0  0  0  0  0  0  0  0  0
   -1.9892  -24.6355   25.3953 C   0  0  0  0  0  0  0  0  0  0  0  0
   -1.1811  -24.7983   24.2710 C   0  0  0  0  0  0  0  0  0  0  0  0
   -1.1162  -26.0300   23.6245 C   0  0  0  0  0  0  0  0  0  0  0  0
   -1.8861  -27.1079   24.0796 C   0  0  0  0  0  0  0  0  0  0  0  0
   -1.8443  -28.4366   23.3443 C   0  0  0  0  0  0  0  0  0  0  0  0
   -0.5660  -29.1568   23.4936 N   0  0  0  0  0  0  0  0  0  0  0  0
   -0.3333  -29.5169   24.9022 C   0  0  0  0  0  0  0  0  0  0  0  0
   -1.2755  -30.6123   25.4293 C   0  0  0  0  0  0  0  0  0  0  0  0
   -1.6877  -31.5533   24.4310 O   0  0  0  0  0  0  0  0  0  0  0  0
   -0.7061  -31.7468   23.3958 C   0  0  2  0  0  0  0  0  0  0  0  0
    0.4901  -32.5226   23.9594 C   0  0  0  0  0  0  0  0  0  0  0  0
   -0.4159  -30.3831   22.6335 C   0  0  0  0  0  0  0  0  0  0  0  0
   -1.3176  -30.3709   21.3687 C   0  0  0  0  0  0  0  0  0  0  0  0
    1.0362  -30.3361   22.0999 C   0  0  0  0  0  0  0  0  0  0  0  0
   -2.7028  -26.9324   25.2091 C   0  0  0  0  0  0  0  0  0  0  0  0
  1  2  1  0
  2  3  2  0
  3  4  1  0
  4  5  2  0
  5  6  1  0
  6  7  1  0
  7  8  1  0
  8  9  1  0
  9 10  1  0
 10 11  1  0
 11 12  1  0
 12 13  1  1
 12 14  1  0
 14 15  1  0
 14 16  1  0
  6 17  2  0
 17  2  1  0
 14  8  1  0
M  END
>  <inchikey>  (186) 
JVUHBQQRQZGLPI-UHFFFAOYSA-N

>  <tags>  (186) 
fragmenstein_placed,CpKRS_FrAncestor_bulkdock_iter2

>  <ref_pdb>  (186) 
x0540b

>  <energy_score>  (186) 
-31.835465

>  <distance_score>  (186) 
0.389043

>  <HIPPO Pose ID>  (186) 
53277

>  <ref_mols>  (186) 
x0675b

>  <smiles>  (186) 
Cc1cccc(CN2CCOC(C)C2(C)C)c1

>  <HIPPO Compound ID>  (186) 
447595

>  <alias>  (186) 
JVUHBQQRQZGLPI-UHFFFAOYSA-N-P60

>  <subsites>  (186) 


>  <placement_batch>  (186) 
CpKRS_FrAncestor_bulkdock_iter2

>  <name>  (186) 
JVUHBQQRQZGLPI-UHFFFAOYSA-N-P60

$$$$
RSEVJFGJBKWUIA-UHFFFAOYSA-N-P60
     RDKit          3D

 16 17  0  0  0  0  0  0  0  0999 V2000
   -3.7194  -25.3758   27.0558 C   0  0  0  0  0  0  0  0  0  0  0  0
   -2.8343  -25.5832   25.8653 C   0  0  0  0  0  0  0  0  0  0  0  0
   -2.0162  -24.5502   25.4043 C   0  0  0  0  0  0  0  0  0  0  0  0
   -1.1765  -24.7504   24.3092 C   0  0  0  0  0  0  0  0  0  0  0  0
   -1.1196  -25.9919   23.6810 C   0  0  0  0  0  0  0  0  0  0  0  0
   -1.9414  -27.0367   24.1164 C   0  0  0  0  0  0  0  0  0  0  0  0
   -1.9417  -28.3613   23.3875 C   0  0  0  0  0  0  0  0  0  0  0  0
   -0.8352  -29.2592   23.7562 N   0  0  0  0  0  0  0  0  0  0  0  0
   -0.9712  -29.8023   25.1216 C   0  0  0  0  0  0  0  0  0  0  0  0
   -1.5857  -31.2037   25.1605 C   0  0  0  0  0  0  0  0  0  0  0  0
   -0.7932  -32.1769   24.4742 O   0  0  0  0  0  0  0  0  0  0  0  0
   -0.1338  -31.6832   23.2887 C   0  0  0  0  0  0  0  0  0  0  0  0
    1.3656  -31.5301   23.5825 C   0  0  0  0  0  0  0  0  0  0  0  0
   -0.3025  -32.7778   22.2244 C   0  0  0  0  0  0  0  0  0  0  0  0
   -0.7662  -30.3636   22.7660 C   0  0  0  0  0  0  0  0  0  0  0  0
   -2.7918  -26.8215   25.2142 C   0  0  0  0  0  0  0  0  0  0  0  0
  1  2  1  0
  2  3  2  0
  3  4  1  0
  4  5  2  0
  5  6  1  0
  6  7  1  0
  7  8  1  0
  8  9  1  0
  9 10  1  0
 10 11  1  0
 11 12  1  0
 12 13  1  0
 12 14  1  0
 12 15  1  0
  6 16  2  0
 16  2  1  0
 15  8  1  0
M  END
>  <inchikey>  (187) 
RSEVJFGJBKWUIA-UHFFFAOYSA-N

>  <tags>  (187) 
fragmenstein_placed,CpKRS_FrAncestor_bulkdock_iter2

>  <ref_pdb>  (187) 
x0540b

>  <energy_score>  (187) 
-32.709199

>  <distance_score>  (187) 
0.498047

>  <HIPPO Pose ID>  (187) 
53279

>  <ref_mols>  (187) 
x0675b

>  <smiles>  (187) 
Cc1cccc(CN2CCOC(C)(C)C2)c1

>  <HIPPO Compound ID>  (187) 
142188

>  <alias>  (187) 
RSEVJFGJBKWUIA-UHFFFAOYSA-N-P60

>  <subsites>  (187) 


>  <placement_batch>  (187) 
CpKRS_FrAncestor_bulkdock_iter2

>  <name>  (187) 
RSEVJFGJBKWUIA-UHFFFAOYSA-N-P60

$$$$
HLPAIKYNMSNMEW-UHFFFAOYSA-N-P60
     RDKit          3D

 17 18  0  0  0  0  0  0  0  0999 V2000
   -3.4847  -25.4169   27.0238 C   0  0  0  0  0  0  0  0  0  0  0  0
   -2.6964  -25.6574   25.7723 C   0  0  0  0  0  0  0  0  0  0  0  0
   -1.8861  -24.6491   25.2452 C   0  0  0  0  0  0  0  0  0  0  0  0
   -1.1490  -24.8706   24.0822 C   0  0  0  0  0  0  0  0  0  0  0  0
   -1.1986  -26.1083   23.4436 C   0  0  0  0  0  0  0  0  0  0  0  0
   -1.9919  -27.1405   23.9605 C   0  0  0  0  0  0  0  0  0  0  0  0
   -2.1047  -28.4659   23.2393 C   0  0  0  0  0  0  0  0  0  0  0  0
   -0.8569  -29.2065   23.0015 N   0  0  0  0  0  0  0  0  0  0  0  0
   -1.1366  -30.3796   22.1303 C   0  0  0  0  0  0  0  0  0  0  0  0
   -1.0438  -31.7608   22.8163 C   0  0  0  0  0  0  0  0  0  0  0  0
   -1.5703  -31.7232   24.1447 O   0  0  0  0  0  0  0  0  0  0  0  0
   -0.8295  -30.8264   25.0133 C   0  0  0  0  0  0  0  0  0  0  0  0
    0.2191  -31.6851   25.7455 C   0  0  0  0  0  0  0  0  0  0  0  0
   -1.8564  -30.3457   26.0445 C   0  0  0  0  0  0  0  0  0  0  0  0
   -0.1088  -29.6929   24.1810 C   0  0  2  0  0  0  0  0  0  0  0  0
    0.5634  -28.5761   24.9732 C   0  0  0  0  0  0  0  0  0  0  0  0
   -2.7412  -26.8986   25.1250 C   0  0  0  0  0  0  0  0  0  0  0  0
  1  2  1  0
  2  3  2  0
  3  4  1  0
  4  5  2  0
  5  6  1  0
  6  7  1  0
  7  8  1  0
  8  9  1  0
  9 10  1  0
 10 11  1  0
 11 12  1  0
 12 13  1  0
 12 14  1  0
 12 15  1  0
 15 16  1  1
  6 17  2  0
 17  2  1  0
 15  8  1  0
M  END
>  <inchikey>  (188) 
HLPAIKYNMSNMEW-UHFFFAOYSA-N

>  <tags>  (188) 
fragmenstein_placed,CpKRS_FrAncestor_bulkdock_iter2

>  <ref_pdb>  (188) 
x0540b

>  <energy_score>  (188) 
-21.730466

>  <distance_score>  (188) 
0.724509

>  <HIPPO Pose ID>  (188) 
53281

>  <ref_mols>  (188) 
x0675b

>  <smiles>  (188) 
Cc1cccc(CN2CCOC(C)(C)C2C)c1

>  <HIPPO Compound ID>  (188) 
447596

>  <alias>  (188) 
HLPAIKYNMSNMEW-UHFFFAOYSA-N-P60

>  <subsites>  (188) 


>  <placement_batch>  (188) 
CpKRS_FrAncestor_bulkdock_iter2

>  <name>  (188) 
HLPAIKYNMSNMEW-UHFFFAOYSA-N-P60

$$$$
QVRJJIYQZIPFTL-UHFFFAOYSA-N-P60
     RDKit          3D

 17 18  0  0  0  0  0  0  0  0999 V2000
   -3.7075  -25.4163   27.0418 C   0  0  0  0  0  0  0  0  0  0  0  0
   -2.8233  -25.6046   25.8468 C   0  0  0  0  0  0  0  0  0  0  0  0
   -2.0125  -24.5600   25.3993 C   0  0  0  0  0  0  0  0  0  0  0  0
   -1.1731  -24.7397   24.3007 C   0  0  0  0  0  0  0  0  0  0  0  0
   -1.1067  -25.9728   23.6570 C   0  0  0  0  0  0  0  0  0  0  0  0
   -1.9201  -27.0298   24.0787 C   0  0  0  0  0  0  0  0  0  0  0  0
   -1.9003  -28.3474   23.3369 C   0  0  0  0  0  0  0  0  0  0  0  0
   -0.8283  -29.2583   23.7526 N   0  0  0  0  0  0  0  0  0  0  0  0
   -0.6861  -30.3718   22.7904 C   0  0  0  0  0  0  0  0  0  0  0  0
   -0.2062  -31.6713   23.4531 C   0  0  0  0  0  0  0  0  0  0  0  0
   -1.1640  -32.1553   24.4035 O   0  0  0  0  0  0  0  0  0  0  0  0
   -1.6380  -31.1467   25.3254 C   0  0  1  0  0  0  0  0  0  0  0  0
   -3.1545  -31.0572   25.1156 C   0  0  0  0  0  0  0  0  0  0  0  0
   -1.3864  -31.5952   26.7194 C   0  0  0  0  0  0  0  0  0  0  0  0
   -1.2060  -31.9077   27.8242 N   0  0  0  0  0  0  0  0  0  0  0  0
   -0.9334  -29.7689   25.1322 C   0  0  0  0  0  0  0  0  0  0  0  0
   -2.7740  -26.8338   25.1780 C   0  0  0  0  0  0  0  0  0  0  0  0
  1  2  1  0
  2  3  2  0
  3  4  1  0
  4  5  2  0
  5  6  1  0
  6  7  1  0
  7  8  1  0
  8  9  1  0
  9 10  1  0
 10 11  1  0
 11 12  1  0
 12 13  1  1
 12 14  1  0
 14 15  3  0
 12 16  1  0
  6 17  2  0
 17  2  1  0
 16  8  1  0
M  END
>  <inchikey>  (189) 
QVRJJIYQZIPFTL-UHFFFAOYSA-N

>  <tags>  (189) 
fragmenstein_placed,CpKRS_FrAncestor_bulkdock_iter2

>  <ref_pdb>  (189) 
x0540b

>  <energy_score>  (189) 
-39.51586

>  <distance_score>  (189) 
0.418497

>  <HIPPO Pose ID>  (189) 
53285

>  <ref_mols>  (189) 
x0675b

>  <smiles>  (189) 
Cc1cccc(CN2CCOC(C)(C#N)C2)c1

>  <HIPPO Compound ID>  (189) 
447598

>  <alias>  (189) 
QVRJJIYQZIPFTL-UHFFFAOYSA-N-P60

>  <subsites>  (189) 


>  <placement_batch>  (189) 
CpKRS_FrAncestor_bulkdock_iter2

>  <name>  (189) 
QVRJJIYQZIPFTL-UHFFFAOYSA-N-P60

$$$$
LSWGQIMXWVICSS-NSHDSACASA-N-P60
     RDKit          3D

 16 17  0  0  0  0  0  0  0  0999 V2000
   -3.7270  -25.1605   26.8632 C   0  0  0  0  0  0  0  0  0  0  0  0
   -2.8263  -25.5462   25.7225 C   0  0  0  0  0  0  0  0  0  0  0  0
   -1.9521  -24.5769   25.2121 C   0  0  0  0  0  0  0  0  0  0  0  0
   -1.0947  -24.8754   24.1595 C   0  0  0  0  0  0  0  0  0  0  0  0
   -1.0783  -26.1537   23.6161 C   0  0  0  0  0  0  0  0  0  0  0  0
   -1.9513  -27.1510   24.0873 C   0  0  0  0  0  0  0  0  0  0  0  0
   -1.9041  -28.4950   23.3853 C   0  0  0  0  0  0  0  0  0  0  0  0
   -0.7040  -29.2909   23.7065 N   0  0  0  0  0  0  0  0  0  0  0  0
   -0.7255  -29.8077   25.0875 C   0  0  0  0  0  0  0  0  0  0  0  0
   -1.5525  -31.0915   25.2528 C   0  0  0  0  0  0  0  0  0  0  0  0
   -1.1659  -32.1557   24.3750 O   0  0  0  0  0  0  0  0  0  0  0  0
   -0.1898  -31.7569   23.4053 C   0  0  0  0  0  0  0  0  0  0  0  0
   -0.5640  -30.4144   22.7376 C   0  0  2  0  0  0  0  0  0  0  0  0
    0.4878  -30.0322   21.6966 C   0  0  0  0  0  0  0  0  0  0  0  0
   -2.8249  -26.8368   25.1512 C   0  0  0  0  0  0  0  0  0  0  0  0
   -4.0453  -28.1416   25.8355 Br  0  0  0  0  0  0  0  0  0  0  0  0
  1  2  1  0
  2  3  2  0
  3  4  1  0
  4  5  2  0
  5  6  1  0
  6  7  1  0
  7  8  1  0
  8  9  1  0
  9 10  1  0
 10 11  1  0
 11 12  1  0
 12 13  1  0
 13 14  1  6
  6 15  2  0
 15 16  1  0
 15  2  1  0
 13  8  1  0
M  END
>  <inchikey>  (190) 
LSWGQIMXWVICSS-UHFFFAOYSA-N

>  <tags>  (190) 
fragmenstein_placed,CpKRS_FrAncestor_bulkdock_iter2

>  <ref_pdb>  (190) 
x0540b

>  <energy_score>  (190) 
-35.829444

>  <distance_score>  (190) 
0.436946

>  <HIPPO Pose ID>  (190) 
53287

>  <ref_mols>  (190) 
x0675b

>  <smiles>  (190) 
Cc1cccc(CN2CCOC[C@@H]2C)c1Br

>  <HIPPO Compound ID>  (190) 
139927

>  <alias>  (190) 
LSWGQIMXWVICSS-NSHDSACASA-N-P60

>  <subsites>  (190) 


>  <placement_batch>  (190) 
CpKRS_FrAncestor_bulkdock_iter2

>  <name>  (190) 
LSWGQIMXWVICSS-NSHDSACASA-N-P60

$$$$
KLRPQDYONCGOAR-LBPRGKRZSA-N-P60
     RDKit          3D

 16 17  0  0  0  0  0  0  0  0999 V2000
   -3.7343  -25.1582   26.8830 C   0  0  0  0  0  0  0  0  0  0  0  0
   -2.8309  -25.5527   25.7462 C   0  0  0  0  0  0  0  0  0  0  0  0
   -1.9498  -24.5879   25.2393 C   0  0  0  0  0  0  0  0  0  0  0  0
   -1.0962  -24.8866   24.1854 C   0  0  0  0  0  0  0  0  0  0  0  0
   -1.0917  -26.1616   23.6380 C   0  0  0  0  0  0  0  0  0  0  0  0
   -1.9681  -27.1539   24.1126 C   0  0  0  0  0  0  0  0  0  0  0  0
   -1.9421  -28.4943   23.3969 C   0  0  0  0  0  0  0  0  0  0  0  0
   -0.7374  -29.2961   23.6806 N   0  0  0  0  0  0  0  0  0  0  0  0
   -0.7055  -29.8011   25.0648 C   0  0  0  0  0  0  0  0  0  0  0  0
   -1.4991  -31.1015   25.2622 C   0  0  0  0  0  0  0  0  0  0  0  0
   -1.1150  -32.1658   24.3837 O   0  0  0  0  0  0  0  0  0  0  0  0
   -0.1925  -31.7494   23.3697 C   0  0  0  0  0  0  0  0  0  0  0  0
   -0.6273  -30.4205   22.7122 C   0  0  2  0  0  0  0  0  0  0  0  0
    0.3618  -30.0280   21.6151 C   0  0  0  0  0  0  0  0  0  0  0  0
   -2.8382  -26.8561   25.1937 C   0  0  0  0  0  0  0  0  0  0  0  0
   -3.8272  -27.8746   25.7042 C   0  0  0  0  0  0  0  0  0  0  0  0
  1  2  1  0
  2  3  2  0
  3  4  1  0
  4  5  2  0
  5  6  1  0
  6  7  1  0
  7  8  1  0
  8  9  1  0
  9 10  1  0
 10 11  1  0
 11 12  1  0
 12 13  1  0
 13 14  1  6
  6 15  2  0
 15 16  1  0
 15  2  1  0
 13  8  1  0
M  END
>  <inchikey>  (191) 
KLRPQDYONCGOAR-UHFFFAOYSA-N

>  <tags>  (191) 
fragmenstein_placed,CpKRS_FrAncestor_bulkdock_iter2

>  <ref_pdb>  (191) 
x0540b

>  <energy_score>  (191) 
-37.836833

>  <distance_score>  (191) 
0.453205

>  <HIPPO Pose ID>  (191) 
53295

>  <ref_mols>  (191) 
x0675b

>  <smiles>  (191) 
Cc1cccc(CN2CCOC[C@@H]2C)c1C

>  <HIPPO Compound ID>  (191) 
139941

>  <alias>  (191) 
KLRPQDYONCGOAR-LBPRGKRZSA-N-P60

>  <subsites>  (191) 


>  <placement_batch>  (191) 
CpKRS_FrAncestor_bulkdock_iter2

>  <name>  (191) 
KLRPQDYONCGOAR-LBPRGKRZSA-N-P60

$$$$
NFPFGWKDEASFSO-OAHLLOKOSA-N-P59
     RDKit          3D

 17 18  0  0  0  0  0  0  0  0999 V2000
    2.9612  -20.0177   22.9671 C   0  0  0  0  0  0  0  0  0  0  0  0
    3.8026  -20.8361   22.0380 C   0  0  0  0  0  0  0  0  0  0  0  0
    4.9566  -20.2932   21.4685 C   0  0  0  0  0  0  0  0  0  0  0  0
    5.7906  -21.0639   20.6648 C   0  0  0  0  0  0  0  0  0  0  0  0
    5.4626  -22.3899   20.3993 C   0  0  0  0  0  0  0  0  0  0  0  0
    4.2999  -22.9519   20.9474 C   0  0  0  0  0  0  0  0  0  0  0  0
    3.9388  -24.3956   20.7259 C   0  0  0  0  0  0  0  0  0  0  0  0
    2.9704  -24.6086   19.6473 N   0  0  0  0  0  0  0  0  0  0  0  0
    3.4499  -24.1456   18.3354 C   0  0  0  0  0  0  0  0  0  0  0  0
    2.4759  -24.5343   17.2156 C   0  0  0  0  0  0  0  0  0  0  0  0
    2.2049  -25.9390   17.1266 O   0  0  0  0  0  0  0  0  0  0  0  0
    2.7022  -26.6821   18.2379 C   0  0  0  0  0  0  0  0  0  0  0  0
    2.5121  -26.0214   19.6220 C   0  0  2  0  0  0  0  0  0  0  0  0
    1.0736  -26.1088   20.2115 C   0  0  0  0  0  0  0  0  0  0  0  0
    0.0078  -25.3419   19.4270 C   0  0  0  0  0  0  0  0  0  0  0  0
    0.6233  -27.5625   20.4005 C   0  0  0  0  0  0  0  0  0  0  0  0
    3.4669  -22.1599   21.7497 C   0  0  0  0  0  0  0  0  0  0  0  0
  1  2  1  0
  2  3  2  0
  3  4  1  0
  4  5  2  0
  5  6  1  0
  6  7  1  0
  7  8  1  0
  8  9  1  0
  9 10  1  0
 10 11  1  0
 11 12  1  0
 12 13  1  0
 13 14  1  6
 14 15  1  0
 14 16  1  0
  6 17  2  0
 17  2  1  0
 13  8  1  0
M  END
>  <inchikey>  (192) 
NFPFGWKDEASFSO-UHFFFAOYSA-N

>  <tags>  (192) 
fragmenstein_placed,CpKRS_FrAncestor_bulkdock_iter2

>  <ref_pdb>  (192) 
x0540b

>  <energy_score>  (192) 
-26.055029

>  <distance_score>  (192) 
0.386685

>  <HIPPO Pose ID>  (192) 
53304

>  <ref_mols>  (192) 
x0675a

>  <smiles>  (192) 
Cc1cccc(CN2CCOC[C@@H]2C(C)C)c1

>  <HIPPO Compound ID>  (192) 
447599

>  <alias>  (192) 
NFPFGWKDEASFSO-OAHLLOKOSA-N-P59

>  <subsites>  (192) 


>  <placement_batch>  (192) 
CpKRS_FrAncestor_bulkdock_iter2

>  <name>  (192) 
NFPFGWKDEASFSO-OAHLLOKOSA-N-P59

$$$$
YPAWQRXEIHLLCM-NSHDSACASA-N-P60
     RDKit          3D

 16 17  0  0  0  0  0  0  0  0999 V2000
   -3.6852  -25.2224   26.9107 C   0  0  0  0  0  0  0  0  0  0  0  0
   -2.8070  -25.5606   25.7387 C   0  0  0  0  0  0  0  0  0  0  0  0
   -1.9530  -24.5725   25.2321 C   0  0  0  0  0  0  0  0  0  0  0  0
   -1.1122  -24.8422   24.1570 C   0  0  0  0  0  0  0  0  0  0  0  0
   -1.0915  -26.1102   23.5876 C   0  0  0  0  0  0  0  0  0  0  0  0
   -1.9438  -27.1226   24.0597 C   0  0  0  0  0  0  0  0  0  0  0  0
   -1.9107  -28.4610   23.3511 C   0  0  0  0  0  0  0  0  0  0  0  0
   -0.7364  -29.2903   23.6775 N   0  0  0  0  0  0  0  0  0  0  0  0
   -0.6808  -30.4447   22.7439 C   0  0  0  0  0  0  0  0  0  0  0  0
   -0.2083  -31.7468   23.4069 C   0  0  0  0  0  0  0  0  0  0  0  0
   -1.0799  -32.1584   24.4695 O   0  0  0  0  0  0  0  0  0  0  0  0
   -1.5632  -31.0629   25.2669 C   0  0  1  0  0  0  0  0  0  0  0  0
   -1.5435  -31.5123   26.7220 C   0  0  0  0  0  0  0  0  0  0  0  0
   -0.7414  -29.7718   25.0735 C   0  0  0  0  0  0  0  0  0  0  0  0
   -2.7986  -26.8383   25.1457 C   0  0  0  0  0  0  0  0  0  0  0  0
   -3.8682  -28.0583   25.7710 Cl  0  0  0  0  0  0  0  0  0  0  0  0
  1  2  1  0
  2  3  2  0
  3  4  1  0
  4  5  2  0
  5  6  1  0
  6  7  1  0
  7  8  1  0
  8  9  1  0
  9 10  1  0
 10 11  1  0
 11 12  1  0
 12 13  1  1
 12 14  1  0
  6 15  2  0
 15 16  1  0
 15  2  1  0
 14  8  1  0
M  END
>  <inchikey>  (193) 
YPAWQRXEIHLLCM-UHFFFAOYSA-N

>  <tags>  (193) 
fragmenstein_placed,CpKRS_FrAncestor_bulkdock_iter2

>  <ref_pdb>  (193) 
x0540b

>  <energy_score>  (193) 
-25.982532

>  <distance_score>  (193) 
0.437472

>  <HIPPO Pose ID>  (193) 
53313

>  <ref_mols>  (193) 
x0675b

>  <smiles>  (193) 
Cc1cccc(CN2CCO[C@@H](C)C2)c1Cl

>  <HIPPO Compound ID>  (193) 
139694

>  <alias>  (193) 
YPAWQRXEIHLLCM-NSHDSACASA-N-P60

>  <subsites>  (193) 


>  <placement_batch>  (193) 
CpKRS_FrAncestor_bulkdock_iter2

>  <name>  (193) 
YPAWQRXEIHLLCM-NSHDSACASA-N-P60

$$$$
ZJMMTXCPHIVKDB-OAHLLOKOSA-N-P60
     RDKit          3D

 17 18  0  0  0  0  0  0  0  0999 V2000
   -3.6172  -25.4744   27.0960 C   0  0  0  0  0  0  0  0  0  0  0  0
   -2.7657  -25.6546   25.8764 C   0  0  0  0  0  0  0  0  0  0  0  0
   -1.9803  -24.6002   25.4057 C   0  0  0  0  0  0  0  0  0  0  0  0
   -1.1657  -24.7711   24.2872 C   0  0  0  0  0  0  0  0  0  0  0  0
   -1.1019  -26.0047   23.6442 C   0  0  0  0  0  0  0  0  0  0  0  0
   -1.8894  -27.0716   24.0906 C   0  0  0  0  0  0  0  0  0  0  0  0
   -1.8732  -28.3911   23.3525 C   0  0  0  0  0  0  0  0  0  0  0  0
   -0.7477  -29.2726   23.7031 N   0  0  0  0  0  0  0  0  0  0  0  0
   -0.6795  -30.3891   22.7269 C   0  0  0  0  0  0  0  0  0  0  0  0
   -0.3204  -31.7395   23.3617 C   0  0  0  0  0  0  0  0  0  0  0  0
   -1.2903  -32.1407   24.3384 O   0  0  0  0  0  0  0  0  0  0  0  0
   -1.7187  -31.0658   25.1947 C   0  0  1  0  0  0  0  0  0  0  0  0
   -1.8165  -31.5897   26.6469 C   0  0  0  0  0  0  0  0  0  0  0  0
   -0.5157  -32.2340   27.1363 C   0  0  0  0  0  0  0  0  0  0  0  0
   -2.9544  -32.6093   26.7753 C   0  0  0  0  0  0  0  0  0  0  0  0
   -0.8271  -29.8050   25.0786 C   0  0  0  0  0  0  0  0  0  0  0  0
   -2.7152  -26.8860   25.2124 C   0  0  0  0  0  0  0  0  0  0  0  0
  1  2  1  0
  2  3  2  0
  3  4  1  0
  4  5  2  0
  5  6  1  0
  6  7  1  0
  7  8  1  0
  8  9  1  0
  9 10  1  0
 10 11  1  0
 11 12  1  0
 12 13  1  1
 13 14  1  0
 13 15  1  0
 12 16  1  0
  6 17  2  0
 17  2  1  0
 16  8  1  0
M  END
>  <inchikey>  (194) 
ZJMMTXCPHIVKDB-UHFFFAOYSA-N

>  <tags>  (194) 
fragmenstein_placed,CpKRS_FrAncestor_bulkdock_iter2

>  <ref_pdb>  (194) 
x0540b

>  <energy_score>  (194) 
-26.94274

>  <distance_score>  (194) 
0.386618

>  <HIPPO Pose ID>  (194) 
53323

>  <ref_mols>  (194) 
x0675b

>  <smiles>  (194) 
Cc1cccc(CN2CCO[C@@H](C(C)C)C2)c1

>  <HIPPO Compound ID>  (194) 
447597

>  <alias>  (194) 
ZJMMTXCPHIVKDB-OAHLLOKOSA-N-P60

>  <subsites>  (194) 


>  <placement_batch>  (194) 
CpKRS_FrAncestor_bulkdock_iter2

>  <name>  (194) 
ZJMMTXCPHIVKDB-OAHLLOKOSA-N-P60

$$$$
UUVZTMBENXVJQR-CHWSQXEVSA-N-P60
     RDKit          3D

 16 17  0  0  0  0  0  0  0  0999 V2000
   -3.5038  -25.4786   27.0973 C   0  0  0  0  0  0  0  0  0  0  0  0
   -2.6924  -25.6947   25.8563 C   0  0  0  0  0  0  0  0  0  0  0  0
   -1.9032  -24.6625   25.3440 C   0  0  0  0  0  0  0  0  0  0  0  0
   -1.1269  -24.8658   24.2038 C   0  0  0  0  0  0  0  0  0  0  0  0
   -1.1127  -26.1085   23.5753 C   0  0  0  0  0  0  0  0  0  0  0  0
   -1.9014  -27.1551   24.0665 C   0  0  0  0  0  0  0  0  0  0  0  0
   -1.9389  -28.4867   23.3503 C   0  0  0  0  0  0  0  0  0  0  0  0
   -0.6854  -29.2464   23.3973 N   0  0  0  0  0  0  0  0  0  0  0  0
   -0.7592  -30.4460   22.5401 C   0  0  0  0  0  0  0  0  0  0  0  0
   -1.4974  -31.6270   23.1847 C   0  0  0  0  0  0  0  0  0  0  0  0
   -0.9532  -31.9872   24.4553 O   0  0  0  0  0  0  0  0  0  0  0  0
   -0.8975  -30.8859   25.3764 C   0  0  2  0  0  0  0  0  0  0  0  0
   -2.2684  -30.6499   26.0045 C   0  0  0  0  0  0  0  0  0  0  0  0
   -0.2260  -29.6230   24.7544 C   0  0  1  0  0  0  0  0  0  0  0  0
    1.3003  -29.8403   24.6743 C   0  0  0  0  0  0  0  0  0  0  0  0
   -2.6831  -26.9384   25.2133 C   0  0  0  0  0  0  0  0  0  0  0  0
  1  2  1  0
  2  3  2  0
  3  4  1  0
  4  5  2  0
  5  6  1  0
  6  7  1  0
  7  8  1  0
  8  9  1  0
  9 10  1  0
 10 11  1  0
 11 12  1  0
 12 13  1  6
 12 14  1  0
 14 15  1  6
  6 16  2  0
 16  2  1  0
 14  8  1  0
M  END
>  <inchikey>  (195) 
UUVZTMBENXVJQR-UHFFFAOYSA-N

>  <tags>  (195) 
fragmenstein_placed,CpKRS_FrAncestor_bulkdock_iter2

>  <ref_pdb>  (195) 
x0540b

>  <energy_score>  (195) 
-48.845421

>  <distance_score>  (195) 
0.590029

>  <HIPPO Pose ID>  (195) 
53325

>  <ref_mols>  (195) 
x0675b

>  <smiles>  (195) 
Cc1cccc(CN2CCO[C@H](C)[C@H]2C)c1

>  <HIPPO Compound ID>  (195) 
140139

>  <alias>  (195) 
UUVZTMBENXVJQR-CHWSQXEVSA-N-P60

>  <subsites>  (195) 


>  <placement_batch>  (195) 
CpKRS_FrAncestor_bulkdock_iter2

>  <name>  (195) 
UUVZTMBENXVJQR-CHWSQXEVSA-N-P60

$$$$
DFTPYHOYOLITMX-STQMWFEESA-N-P59
     RDKit          3D

 17 18  0  0  0  0  0  0  0  0999 V2000
    2.9487  -19.9821   22.9287 C   0  0  0  0  0  0  0  0  0  0  0  0
    3.7338  -20.8787   22.0116 C   0  0  0  0  0  0  0  0  0  0  0  0
    4.9476  -20.3616   21.5240 C   0  0  0  0  0  0  0  0  0  0  0  0
    5.8052  -21.1198   20.7427 C   0  0  0  0  0  0  0  0  0  0  0  0
    5.4681  -22.4324   20.4537 C   0  0  0  0  0  0  0  0  0  0  0  0
    4.2529  -22.9838   20.9057 C   0  0  0  0  0  0  0  0  0  0  0  0
    3.9557  -24.4434   20.6359 C   0  0  0  0  0  0  0  0  0  0  0  0
    2.9121  -24.6905   19.6479 N   0  0  0  0  0  0  0  0  0  0  0  0
    2.5200  -26.1053   19.5668 C   0  0  1  0  0  0  0  0  0  0  0  0
    1.0986  -26.2559   20.1158 C   0  0  0  0  0  0  0  0  0  0  0  0
    2.6342  -26.6720   18.1436 C   0  0  0  0  0  0  0  0  0  0  0  0
    1.9962  -25.9126   17.1128 O   0  0  0  0  0  0  0  0  0  0  0  0
    1.9171  -24.5062   17.3944 C   0  0  0  0  0  0  0  0  0  0  0  0
    3.0119  -23.9954   18.3532 C   0  0  2  0  0  0  0  0  0  0  0  0
    4.3746  -24.0533   17.6564 C   0  0  0  0  0  0  0  0  0  0  0  0
    3.3452  -22.1840   21.6454 C   0  0  0  0  0  0  0  0  0  0  0  0
    1.9578  -22.7226   21.9050 C   0  0  0  0  0  0  0  0  0  0  0  0
  1  2  1  0
  2  3  2  0
  3  4  1  0
  4  5  2  0
  5  6  1  0
  6  7  1  0
  7  8  1  0
  8  9  1  0
  9 10  1  6
  9 11  1  0
 11 12  1  0
 12 13  1  0
 13 14  1  0
 14 15  1  6
  6 16  2  0
 16 17  1  0
 16  2  1  0
 14  8  1  0
M  END
>  <inchikey>  (196) 
DFTPYHOYOLITMX-UHFFFAOYSA-N

>  <tags>  (196) 
fragmenstein_placed,CpKRS_FrAncestor_bulkdock_iter2

>  <ref_pdb>  (196) 
x0540b

>  <energy_score>  (196) 
-29.53422

>  <distance_score>  (196) 
0.493125

>  <HIPPO Pose ID>  (196) 
53330

>  <ref_mols>  (196) 
x0675a

>  <smiles>  (196) 
Cc1cccc(CN2[C@@H](C)COC[C@@H]2C)c1C

>  <HIPPO Compound ID>  (196) 
447582

>  <alias>  (196) 
DFTPYHOYOLITMX-STQMWFEESA-N-P59

>  <subsites>  (196) 


>  <placement_batch>  (196) 
CpKRS_FrAncestor_bulkdock_iter2

>  <name>  (196) 
DFTPYHOYOLITMX-STQMWFEESA-N-P59

$$$$
MVBXKPCCBNAVNA-STQMWFEESA-N-P59
     RDKit          3D

 16 17  0  0  0  0  0  0  0  0999 V2000
    2.9294  -20.0178   22.9768 C   0  0  0  0  0  0  0  0  0  0  0  0
    3.7752  -20.8298   22.0460 C   0  0  0  0  0  0  0  0  0  0  0  0
    4.9241  -20.2737   21.4789 C   0  0  0  0  0  0  0  0  0  0  0  0
    5.7725  -21.0381   20.6875 C   0  0  0  0  0  0  0  0  0  0  0  0
    5.4620  -22.3699   20.4317 C   0  0  0  0  0  0  0  0  0  0  0  0
    4.2944  -22.9437   20.9598 C   0  0  0  0  0  0  0  0  0  0  0  0
    3.9514  -24.3942   20.7390 C   0  0  0  0  0  0  0  0  0  0  0  0
    2.9135  -24.6397   19.7409 N   0  0  0  0  0  0  0  0  0  0  0  0
    3.0325  -23.9733   18.4312 C   0  0  1  0  0  0  0  0  0  0  0  0
    4.3914  -24.0769   17.7322 C   0  0  0  0  0  0  0  0  0  0  0  0
    1.9269  -24.4804   17.4817 C   0  0  0  0  0  0  0  0  0  0  0  0
    1.9844  -25.8912   17.2173 O   0  0  0  0  0  0  0  0  0  0  0  0
    2.6196  -26.6466   18.2534 C   0  0  0  0  0  0  0  0  0  0  0  0
    2.5182  -26.0574   19.6718 C   0  0  2  0  0  0  0  0  0  0  0  0
    1.0988  -26.1943   20.2306 C   0  0  0  0  0  0  0  0  0  0  0  0
    3.4510  -22.1576   21.7566 C   0  0  0  0  0  0  0  0  0  0  0  0
  1  2  1  0
  2  3  2  0
  3  4  1  0
  4  5  2  0
  5  6  1  0
  6  7  1  0
  7  8  1  0
  8  9  1  0
  9 10  1  6
  9 11  1  0
 11 12  1  0
 12 13  1  0
 13 14  1  0
 14 15  1  6
  6 16  2  0
 16  2  1  0
 14  8  1  0
M  END
>  <inchikey>  (197) 
MVBXKPCCBNAVNA-UHFFFAOYSA-N

>  <tags>  (197) 
fragmenstein_placed,CpKRS_FrAncestor_bulkdock_iter2

>  <ref_pdb>  (197) 
x0540b

>  <energy_score>  (197) 
-30.436949

>  <distance_score>  (197) 
0.473113

>  <HIPPO Pose ID>  (197) 
53336

>  <ref_mols>  (197) 
x0675a

>  <smiles>  (197) 
Cc1cccc(CN2[C@@H](C)COC[C@@H]2C)c1

>  <HIPPO Compound ID>  (197) 
142279

>  <alias>  (197) 
MVBXKPCCBNAVNA-STQMWFEESA-N-P59

>  <subsites>  (197) 


>  <placement_batch>  (197) 
CpKRS_FrAncestor_bulkdock_iter2

>  <name>  (197) 
MVBXKPCCBNAVNA-STQMWFEESA-N-P59

$$$$
DCAXSXXMJJNHKP-UHFFFAOYSA-N-P30
     RDKit          3D

 17 18  0  0  0  0  0  0  0  0999 V2000
    5.7230   -7.0328   24.6136 C   0  0  0  0  0  0  0  0  0  0  0  0
    5.2913   -8.3019   23.9526 C   0  0  0  0  0  0  0  0  0  0  0  0
    5.5585   -8.5299   22.6059 C   0  0  0  0  0  0  0  0  0  0  0  0
    5.3476   -9.7905   22.0562 C   0  0  0  0  0  0  0  0  0  0  0  0
    4.8798  -10.8552   22.8410 C   0  0  0  0  0  0  0  0  0  0  0  0
    4.6922  -12.1862   22.1763 C   0  0  0  0  0  0  0  0  0  0  0  0
    4.5852  -10.6152   24.1862 C   0  0  0  0  0  0  0  0  0  0  0  0
    4.1549  -11.5952   25.0735 N   0  0  0  0  0  0  0  0  0  0  0  0
    4.5356  -13.0919   25.1802 C   0  0  0  0  0  0  0  0  0  0  0  0
    5.3257  -13.7150   24.5897 O   0  0  0  0  0  0  0  0  0  0  0  0
    3.7118  -13.7954   26.2054 C   0  0  0  0  0  0  0  0  0  0  0  0
    2.3868  -13.4460   26.4537 C   0  0  0  0  0  0  0  0  0  0  0  0
    1.7153  -14.1438   27.4373 C   0  0  0  0  0  0  0  0  0  0  0  0
    2.2463  -15.1519   28.1584 N   0  0  0  0  0  0  0  0  0  0  0  0
    3.5158  -15.5011   27.8508 C   0  0  0  0  0  0  0  0  0  0  0  0
    4.2822  -14.8635   26.8950 C   0  0  0  0  0  0  0  0  0  0  0  0
    4.7327   -9.3280   24.7139 C   0  0  0  0  0  0  0  0  0  0  0  0
  1  2  1  0
  2  3  2  0
  3  4  1  0
  4  5  2  0
  5  6  1  0
  5  7  1  0
  7  8  1  0
  8  9  1  0
  9 10  2  0
  9 11  1  0
 11 12  2  0
 12 13  1  0
 13 14  2  0
 14 15  1  0
 15 16  2  0
  7 17  2  0
 17  2  1  0
 16 11  1  0
M  END
>  <inchikey>  (198) 
DCAXSXXMJJNHKP-UHFFFAOYSA-N

>  <tags>  (198) 
fragmenstein_placed,CpKRS_FrAncestor_bulkdock_iter2

>  <ref_pdb>  (198) 
x0540b

>  <energy_score>  (198) 
-3.828899

>  <distance_score>  (198) 
0.249561

>  <HIPPO Pose ID>  (198) 
53354

>  <ref_mols>  (198) 
x0485a

>  <smiles>  (198) 
Cc1ccc(C)c(NC(=O)c2ccncc2)c1

>  <HIPPO Compound ID>  (198) 
144581

>  <alias>  (198) 
DCAXSXXMJJNHKP-UHFFFAOYSA-N-P30

>  <subsites>  (198) 


>  <placement_batch>  (198) 
CpKRS_FrAncestor_bulkdock_iter2

>  <name>  (198) 
DCAXSXXMJJNHKP-UHFFFAOYSA-N-P30

$$$$
ZEHYQWPSKOQNPD-UHFFFAOYSA-N-P20
     RDKit          3D

 15 16  0  0  0  0  0  0  0  0999 V2000
    5.2935    9.4873   40.5721 C   0  0  0  0  0  0  0  0  0  0  0  0
    5.2239    7.9965   40.6918 C   0  0  0  0  0  0  0  0  0  0  0  0
    5.9786    7.1905   39.8423 C   0  0  0  0  0  0  0  0  0  0  0  0
    5.8776    5.8066   39.9482 C   0  0  0  0  0  0  0  0  0  0  0  0
    4.9986    5.2607   40.8705 C   0  0  0  0  0  0  0  0  0  0  0  0
    4.2605    6.1348   41.6585 C   0  0  0  0  0  0  0  0  0  0  0  0
    3.2782    5.5988   42.6594 C   0  0  0  0  0  0  0  0  0  0  0  0
    2.9455    4.4831   42.6140 O   0  0  0  0  0  0  0  0  0  0  0  0
    2.9153    6.7072   43.6616 N   0  0  0  0  0  0  0  0  0  0  0  0
    2.1501    6.6554   44.8610 C   0  0  0  0  0  0  0  0  0  0  0  0
    2.8116    5.8299   45.9215 C   0  0  2  0  0  0  0  0  0  0  0  0
    3.3568    4.4177   45.7448 C   0  0  0  0  0  0  0  0  0  0  0  0
    2.0141    4.6311   46.3542 C   0  0  1  0  0  0  0  0  0  0  0  0
    1.7402    4.3378   47.7630 C   0  0  0  0  0  0  0  0  0  0  0  0
    4.3920    7.4913   41.6300 N   0  0  0  0  0  0  0  0  0  0  0  0
  1  2  1  0
  2  3  2  0
  3  4  1  0
  4  5  2  0
  5  6  1  0
  6  7  1  0
  7  8  2  0
  7  9  1  0
  9 10  1  0
 11 10  1  6
 11 12  1  0
 12 13  1  0
 13 14  1  1
  6 15  2  0
 15  2  1  0
 13 11  1  0
M  END
>  <inchikey>  (199) 
ZEHYQWPSKOQNPD-UHFFFAOYSA-N

>  <tags>  (199) 
fragmenstein_placed,CpKRS_FrAncestor_bulkdock_iter2

>  <ref_pdb>  (199) 
x0540b

>  <energy_score>  (199) 
-3.859731

>  <distance_score>  (199) 
0.700538

>  <HIPPO Pose ID>  (199) 
53400

>  <ref_mols>  (199) 
x0456a

>  <smiles>  (199) 
Cc1cccc(C(=O)NCC2CC2C)n1

>  <HIPPO Compound ID>  (199) 
310298

>  <alias>  (199) 
ZEHYQWPSKOQNPD-UHFFFAOYSA-N-P20

>  <subsites>  (199) 


>  <placement_batch>  (199) 
CpKRS_FrAncestor_bulkdock_iter2

>  <name>  (199) 
ZEHYQWPSKOQNPD-UHFFFAOYSA-N-P20

$$$$
YMKWEJCAVVAOPJ-NXEZZACHSA-N-P20
     RDKit          3D

 16 17  0  0  0  0  0  0  0  0999 V2000
    5.3407    9.5687   40.5555 C   0  0  0  0  0  0  0  0  0  0  0  0
    5.2484    8.0812   40.6893 C   0  0  0  0  0  0  0  0  0  0  0  0
    6.0100    7.2580   39.8611 C   0  0  0  0  0  0  0  0  0  0  0  0
    5.8773    5.8778   39.9642 C   0  0  0  0  0  0  0  0  0  0  0  0
    4.9514    5.3572   40.8537 C   0  0  0  0  0  0  0  0  0  0  0  0
    4.2041    6.2500   41.6155 C   0  0  0  0  0  0  0  0  0  0  0  0
    3.1452    5.7328   42.5421 C   0  0  0  0  0  0  0  0  0  0  0  0
    2.7278    4.6580   42.3892 O   0  0  0  0  0  0  0  0  0  0  0  0
    2.8522    6.7658   43.6346 N   0  0  0  0  0  0  0  0  0  0  0  0
    2.0642    6.6656   44.8121 C   0  0  0  0  0  0  0  0  0  0  0  0
    2.7634    5.9362   45.9138 C   0  0  0  0  0  0  0  0  0  0  0  0
    3.4664    4.5723   45.9107 C   0  0  2  0  0  0  0  0  0  0  0  0
    3.7328    3.6228   44.8152 C   0  0  0  0  0  0  0  0  0  0  0  0
    2.0564    4.6892   46.3851 C   0  0  1  0  0  0  0  0  0  0  0  0
    1.6961    4.4318   47.7816 C   0  0  0  0  0  0  0  0  0  0  0  0
    4.3797    7.5988   41.6057 N   0  0  0  0  0  0  0  0  0  0  0  0
  1  2  1  0
  2  3  2  0
  3  4  1  0
  4  5  2  0
  5  6  1  0
  6  7  1  0
  7  8  2  0
  7  9  1  0
  9 10  1  0
 10 11  1  0
 11 12  1  0
 12 13  1  6
 12 14  1  0
 14 15  1  1
  6 16  2  0
 16  2  1  0
 14 11  1  0
M  END
>  <inchikey>  (200) 
YMKWEJCAVVAOPJ-UHFFFAOYSA-N

>  <tags>  (200) 
fragmenstein_placed,CpKRS_FrAncestor_bulkdock_iter2

>  <ref_pdb>  (200) 
x0540b

>  <energy_score>  (200) 
-6.432747

>  <distance_score>  (200) 
0.781206

>  <HIPPO Pose ID>  (200) 
53407

>  <ref_mols>  (200) 
x0456a

>  <smiles>  (200) 
Cc1cccc(C(=O)NCC2[C@H](C)[C@H]2C)n1

>  <HIPPO Compound ID>  (200) 
122983

>  <alias>  (200) 
YMKWEJCAVVAOPJ-NXEZZACHSA-N-P20

>  <subsites>  (200) 


>  <placement_batch>  (200) 
CpKRS_FrAncestor_bulkdock_iter2

>  <name>  (200) 
YMKWEJCAVVAOPJ-NXEZZACHSA-N-P20

$$$$
SARDBKIWTHNIOM-UHFFFAOYSA-N-P64
     RDKit          3D

 16 17  0  0  0  0  0  0  0  0999 V2000
    2.5264  -15.8855   28.4548 C   0  0  0  0  0  0  0  0  0  0  0  0
    2.7146  -14.9645   27.2992 C   0  0  0  0  0  0  0  0  0  0  0  0
    1.8804  -13.9730   26.8350 C   0  0  0  0  0  0  0  0  0  0  0  0
    2.3596  -13.3392   25.6332 C   0  0  0  0  0  0  0  0  0  0  0  0
    1.5505  -12.3201   24.8964 C   0  0  0  0  0  0  0  0  0  0  0  0
    3.5990  -13.8549   25.2577 C   0  0  0  0  0  0  0  0  0  0  0  0
    4.4593  -13.6088   24.0804 C   0  0  0  0  0  0  0  0  0  0  0  0
    5.0233  -14.5068   23.6035 O   0  0  0  0  0  0  0  0  0  0  0  0
    4.3946  -12.1353   23.6544 N   0  0  0  0  0  0  0  0  0  0  0  0
    4.9320  -11.4747   22.5004 C   0  0  0  0  0  0  0  0  0  0  0  0
    5.1609  -10.0340   22.7527 C   0  0  0  0  0  0  0  0  0  0  0  0
    4.9624   -8.9699   21.8439 C   0  0  0  0  0  0  0  0  0  0  0  0
    5.2480   -7.7743   22.3656 N   0  0  0  0  0  0  0  0  0  0  0  0
    5.7446   -8.0746   23.5792 N   0  0  0  0  0  0  0  0  0  0  0  0
    5.6856   -9.4063   23.8615 C   0  0  0  0  0  0  0  0  0  0  0  0
    4.1210  -15.0842   26.3501 S   0  0  0  0  0  0  0  0  0  0  0  0
  1  2  1  0
  2  3  2  0
  3  4  1  0
  4  5  1  0
  4  6  2  0
  6  7  1  0
  7  8  2  0
  7  9  1  0
  9 10  1  0
 10 11  1  0
 11 12  1  0
 12 13  2  0
 13 14  1  0
 14 15  1  0
  6 16  1  0
 16  2  1  0
 15 11  2  0
M  END
>  <inchikey>  (201) 
SARDBKIWTHNIOM-UHFFFAOYSA-N

>  <tags>  (201) 
fragmenstein_placed,CpKRS_FrAncestor_bulkdock_iter2

>  <ref_pdb>  (201) 
x0540b

>  <energy_score>  (201) 
-15.578112

>  <distance_score>  (201) 
0.434435

>  <HIPPO Pose ID>  (201) 
53409

>  <ref_mols>  (201) 
x0787b

>  <smiles>  (201) 
Cc1cc(C)c(C(=O)NCc2cn[nH]c2)s1

>  <HIPPO Compound ID>  (201) 
128311

>  <alias>  (201) 
SARDBKIWTHNIOM-UHFFFAOYSA-N-P64

>  <subsites>  (201) 


>  <placement_batch>  (201) 
CpKRS_FrAncestor_bulkdock_iter2

>  <name>  (201) 
SARDBKIWTHNIOM-UHFFFAOYSA-N-P64

$$$$
CKZNYVJHRGMQEV-UHFFFAOYSA-N-P20
     RDKit          3D

 16 17  0  0  0  0  0  0  0  0999 V2000
    4.8291    9.3614   40.8955 C   0  0  0  0  0  0  0  0  0  0  0  0
    4.9099    7.8652   40.9415 C   0  0  0  0  0  0  0  0  0  0  0  0
    5.6278    7.1855   39.9578 C   0  0  0  0  0  0  0  0  0  0  0  0
    5.6860    5.7969   39.9973 C   0  0  0  0  0  0  0  0  0  0  0  0
    5.0129    5.1216   41.0053 C   0  0  0  0  0  0  0  0  0  0  0  0
    4.3111    5.8704   41.9459 C   0  0  0  0  0  0  0  0  0  0  0  0
    3.6201    5.1619   43.0811 C   0  0  0  0  0  0  0  0  0  0  0  0
    3.4668    4.0064   43.0195 O   0  0  0  0  0  0  0  0  0  0  0  0
    3.2630    6.1605   44.2037 N   0  0  0  0  0  0  0  0  0  0  0  0
    2.5519    5.9596   45.4532 C   0  0  0  0  0  0  0  0  0  0  0  0
    2.3519    7.2742   46.1974 C   0  0  0  0  0  0  0  0  0  0  0  0
    1.1633    5.4839   45.1518 C   0  0  0  0  0  0  0  0  0  0  0  0
    3.3206    5.0052   46.3122 C   0  0  0  0  0  0  0  0  0  0  0  0
    3.3705    3.5166   46.0971 C   0  0  0  0  0  0  0  0  0  0  0  0
    2.6265    4.0628   47.2778 C   0  0  0  0  0  0  0  0  0  0  0  0
    4.2768    7.2342   41.9631 N   0  0  0  0  0  0  0  0  0  0  0  0
  1  2  1  0
  2  3  2  0
  3  4  1  0
  4  5  2  0
  5  6  1  0
  6  7  1  0
  7  8  2  0
  7  9  1  0
  9 10  1  0
 10 11  1  0
 10 12  1  0
 10 13  1  0
 13 14  1  0
 14 15  1  0
  6 16  2  0
 16  2  1  0
 15 13  1  0
M  END
>  <inchikey>  (202) 
CKZNYVJHRGMQEV-UHFFFAOYSA-N

>  <tags>  (202) 
fragmenstein_placed,CpKRS_FrAncestor_bulkdock_iter2

>  <ref_pdb>  (202) 
x0540b

>  <energy_score>  (202) 
-0.204362

>  <distance_score>  (202) 
0.433925

>  <HIPPO Pose ID>  (202) 
53414

>  <ref_mols>  (202) 
x0456a

>  <smiles>  (202) 
Cc1cccc(C(=O)NC(C)(C)C2CC2)n1

>  <HIPPO Compound ID>  (202) 
138062

>  <alias>  (202) 
CKZNYVJHRGMQEV-UHFFFAOYSA-N-P20

>  <subsites>  (202) 


>  <placement_batch>  (202) 
CpKRS_FrAncestor_bulkdock_iter2

>  <name>  (202) 
CKZNYVJHRGMQEV-UHFFFAOYSA-N-P20

$$$$
BQHMVMRKBLHHQT-UHFFFAOYSA-N-P63
     RDKit          3D

 17 18  0  0  0  0  0  0  0  0999 V2000
    2.3435  -16.6456   27.6038 C   0  0  0  0  0  0  0  0  0  0  0  0
    2.4971  -15.4004   26.8104 C   0  0  0  0  0  0  0  0  0  0  0  0
    1.5385  -14.4712   26.4926 C   0  0  0  0  0  0  0  0  0  0  0  0
    2.0322  -13.4023   25.6685 C   0  0  0  0  0  0  0  0  0  0  0  0
    1.1187  -12.2982   25.2450 C   0  0  0  0  0  0  0  0  0  0  0  0
    3.3925  -13.5698   25.3819 C   0  0  0  0  0  0  0  0  0  0  0  0
    4.3733  -12.7701   24.5964 C   0  0  0  0  0  0  0  0  0  0  0  0
    5.5080  -12.8269   24.8488 O   0  0  0  0  0  0  0  0  0  0  0  0
    3.6276  -11.9255   23.5548 N   0  0  0  0  0  0  0  0  0  0  0  0
    4.1043  -10.9051   22.6692 C   0  0  2  0  0  0  0  0  0  0  0  0
    5.0545  -11.4737   21.6445 C   0  0  0  0  0  0  0  0  0  0  0  0
    4.6246   -9.7197   23.4045 C   0  0  0  0  0  0  0  0  0  0  0  0
    5.7718   -8.9457   23.1065 C   0  0  0  0  0  0  0  0  0  0  0  0
    5.9022   -7.8823   23.8990 N   0  0  0  0  0  0  0  0  0  0  0  0
    4.8994   -8.0141   24.7747 N   0  0  0  0  0  0  0  0  0  0  0  0
    4.0559   -9.0415   24.4627 C   0  0  0  0  0  0  0  0  0  0  0  0
    4.0138  -14.9750   26.1762 S   0  0  0  0  0  0  0  0  0  0  0  0
  1  2  1  0
  2  3  2  0
  3  4  1  0
  4  5  1  0
  4  6  2  0
  6  7  1  0
  7  8  2  0
  7  9  1  0
  9 10  1  0
 10 11  1  1
 10 12  1  0
 12 13  1  0
 13 14  2  0
 14 15  1  0
 15 16  1  0
  6 17  1  0
 17  2  1  0
 16 12  2  0
M  END
>  <inchikey>  (203) 
BQHMVMRKBLHHQT-UHFFFAOYSA-N

>  <tags>  (203) 
fragmenstein_placed,CpKRS_FrAncestor_bulkdock_iter2

>  <ref_pdb>  (203) 
x0540b

>  <energy_score>  (203) 
-2.57415

>  <distance_score>  (203) 
0.745678

>  <HIPPO Pose ID>  (203) 
53415

>  <ref_mols>  (203) 
x0787a

>  <smiles>  (203) 
Cc1cc(C)c(C(=O)NC(C)c2cn[nH]c2)s1

>  <HIPPO Compound ID>  (203) 
447619

>  <alias>  (203) 
BQHMVMRKBLHHQT-UHFFFAOYSA-N-P63

>  <subsites>  (203) 


>  <placement_batch>  (203) 
CpKRS_FrAncestor_bulkdock_iter2

>  <name>  (203) 
BQHMVMRKBLHHQT-UHFFFAOYSA-N-P63

$$$$
GGIAEDMQSGKQOD-UHFFFAOYSA-N-P38
     RDKit          3D

 16 16  0  0  0  0  0  0  0  0999 V2000
   -0.0090  -13.9954   26.6989 C   0  0  0  0  0  0  0  0  0  0  0  0
    1.4532  -13.9798   26.3955 C   0  0  0  0  0  0  0  0  0  0  0  0
    2.2795  -14.9117   27.0413 C   0  0  0  0  0  0  0  0  0  0  0  0
    3.6283  -15.0020   26.7154 C   0  0  0  0  0  0  0  0  0  0  0  0
    4.1638  -14.1688   25.7360 C   0  0  0  0  0  0  0  0  0  0  0  0
    3.3541  -13.2213   25.0988 C   0  0  0  0  0  0  0  0  0  0  0  0
    3.9328  -12.4208   23.9853 C   0  0  0  0  0  0  0  0  0  0  0  0
    4.4683  -12.9836   23.1197 O   0  0  0  0  0  0  0  0  0  0  0  0
    3.6111  -10.9283   24.1537 N   0  0  0  0  0  0  0  0  0  0  0  0
    3.7948   -9.8298   23.2536 C   0  0  0  0  0  0  0  0  0  0  0  0
    5.2672   -9.5397   23.0117 C   0  0  0  0  0  0  0  0  0  0  0  0
    5.4500   -8.8726   21.6573 C   0  0  0  0  0  0  0  0  0  0  0  0
    5.8279   -8.6620   24.1274 C   0  0  0  0  0  0  0  0  0  0  0  0
    1.9916  -13.1276   25.4174 C   0  0  0  0  0  0  0  0  0  0  0  0
    1.1368  -12.1791   24.7599 C   0  0  0  0  0  0  0  0  0  0  0  0
    0.4466  -11.3541   24.3231 N   0  0  0  0  0  0  0  0  0  0  0  0
  1  2  1  0
  2  3  2  0
  3  4  1  0
  4  5  2  0
  5  6  1  0
  6  7  1  0
  7  8  2  0
  7  9  1  0
  9 10  1  0
 10 11  1  0
 11 12  1  0
 11 13  1  0
  6 14  2  0
 14 15  1  0
 15 16  3  0
 14  2  1  0
M  END
>  <inchikey>  (204) 
GGIAEDMQSGKQOD-UHFFFAOYSA-N

>  <tags>  (204) 
fragmenstein_placed,CpKRS_FrAncestor_bulkdock_iter2

>  <ref_pdb>  (204) 
x0540b

>  <energy_score>  (204) 
-9.215621

>  <distance_score>  (204) 
0.943185

>  <HIPPO Pose ID>  (204) 
53417

>  <ref_mols>  (204) 
x0555a

>  <smiles>  (204) 
Cc1cccc(C(=O)NCC(C)C)c1C#N

>  <HIPPO Compound ID>  (204) 
327223

>  <alias>  (204) 
GGIAEDMQSGKQOD-UHFFFAOYSA-N-P38

>  <subsites>  (204) 


>  <placement_batch>  (204) 
CpKRS_FrAncestor_bulkdock_iter2

>  <name>  (204) 
GGIAEDMQSGKQOD-UHFFFAOYSA-N-P38

$$$$
SSSAKGXHXADMHS-UHFFFAOYSA-N-P38
     RDKit          3D

 15 15  0  0  0  0  0  0  0  0999 V2000
   -0.2740  -13.4613   25.9914 C   0  0  0  0  0  0  0  0  0  0  0  0
    1.1771  -13.7689   26.1818 C   0  0  0  0  0  0  0  0  0  0  0  0
    1.6192  -14.7036   27.1208 C   0  0  0  0  0  0  0  0  0  0  0  0
    2.9605  -15.0746   27.1625 C   0  0  0  0  0  0  0  0  0  0  0  0
    3.8713  -14.4980   26.2773 C   0  0  0  0  0  0  0  0  0  0  0  0
    3.4621  -13.5183   25.3585 C   0  0  0  0  0  0  0  0  0  0  0  0
    4.5073  -12.9010   24.4668 C   0  0  0  0  0  0  0  0  0  0  0  0
    5.6019  -13.2695   24.6101 O   0  0  0  0  0  0  0  0  0  0  0  0
    3.9327  -11.8269   23.5291 N   0  0  0  0  0  0  0  0  0  0  0  0
    4.5667  -11.0479   22.5055 C   0  0  0  0  0  0  0  0  0  0  0  0
    5.1961   -9.7562   23.0366 C   0  0  0  0  0  0  0  0  0  0  0  0
    5.6359   -8.8927   21.8596 C   0  0  0  0  0  0  0  0  0  0  0  0
    4.2593   -8.9463   23.9290 C   0  0  0  0  0  0  0  0  0  0  0  0
    2.1112  -13.1693   25.3314 C   0  0  0  0  0  0  0  0  0  0  0  0
    1.6529  -12.2481   24.4661 F   0  0  0  0  0  0  0  0  0  0  0  0
  1  2  1  0
  2  3  2  0
  3  4  1  0
  4  5  2  0
  5  6  1  0
  6  7  1  0
  7  8  2  0
  7  9  1  0
  9 10  1  0
 10 11  1  0
 11 12  1  0
 11 13  1  0
  6 14  2  0
 14 15  1  0
 14  2  1  0
M  END
>  <inchikey>  (205) 
SSSAKGXHXADMHS-UHFFFAOYSA-N

>  <tags>  (205) 
fragmenstein_placed,CpKRS_FrAncestor_bulkdock_iter2

>  <ref_pdb>  (205) 
x0540b

>  <energy_score>  (205) 
-9.236681

>  <distance_score>  (205) 
0.627496

>  <HIPPO Pose ID>  (205) 
53419

>  <ref_mols>  (205) 
x0555a

>  <smiles>  (205) 
Cc1cccc(C(=O)NCC(C)C)c1F

>  <HIPPO Compound ID>  (205) 
313687

>  <alias>  (205) 
SSSAKGXHXADMHS-UHFFFAOYSA-N-P38

>  <subsites>  (205) 


>  <placement_batch>  (205) 
CpKRS_FrAncestor_bulkdock_iter2

>  <name>  (205) 
SSSAKGXHXADMHS-UHFFFAOYSA-N-P38

$$$$
VCWJGRZESPIICF-UHFFFAOYSA-N-P38
     RDKit          3D

 15 15  0  0  0  0  0  0  0  0999 V2000
   -0.4524  -13.3364   25.8470 C   0  0  0  0  0  0  0  0  0  0  0  0
    1.0159  -13.5672   26.0762 C   0  0  0  0  0  0  0  0  0  0  0  0
    1.4100  -14.4843   27.0620 C   0  0  0  0  0  0  0  0  0  0  0  0
    2.7324  -14.8879   27.1719 C   0  0  0  0  0  0  0  0  0  0  0  0
    3.6799  -14.3647   26.3016 C   0  0  0  0  0  0  0  0  0  0  0  0
    3.3375  -13.3869   25.3472 C   0  0  0  0  0  0  0  0  0  0  0  0
    4.4845  -12.8838   24.4879 C   0  0  0  0  0  0  0  0  0  0  0  0
    5.5045  -13.4353   24.5755 O   0  0  0  0  0  0  0  0  0  0  0  0
    4.0739  -11.6873   23.6243 N   0  0  0  0  0  0  0  0  0  0  0  0
    4.7997  -10.9741   22.6170 C   0  0  0  0  0  0  0  0  0  0  0  0
    4.6931   -9.4590   22.7780 C   0  0  0  0  0  0  0  0  0  0  0  0
    5.3218   -8.9701   24.0826 C   0  0  0  0  0  0  0  0  0  0  0  0
    5.3776   -8.7928   21.5930 C   0  0  0  0  0  0  0  0  0  0  0  0
    1.9931  -12.9448   25.2643 C   0  0  0  0  0  0  0  0  0  0  0  0
    1.5578  -12.0726   24.2209 N   0  0  0  0  0  0  0  0  0  0  0  0
  1  2  1  0
  2  3  2  0
  3  4  1  0
  4  5  2  0
  5  6  1  0
  6  7  1  0
  7  8  2  0
  7  9  1  0
  9 10  1  0
 10 11  1  0
 11 12  1  0
 11 13  1  0
  6 14  2  0
 14 15  1  0
 14  2  1  0
M  END
>  <inchikey>  (206) 
VCWJGRZESPIICF-UHFFFAOYSA-N

>  <tags>  (206) 
fragmenstein_placed,CpKRS_FrAncestor_bulkdock_iter2

>  <ref_pdb>  (206) 
x0540b

>  <energy_score>  (206) 
-20.554446

>  <distance_score>  (206) 
0.398114

>  <HIPPO Pose ID>  (206) 
53420

>  <ref_mols>  (206) 
x0555a

>  <smiles>  (206) 
Cc1cccc(C(=O)NCC(C)C)c1N

>  <HIPPO Compound ID>  (206) 
306520

>  <alias>  (206) 
VCWJGRZESPIICF-UHFFFAOYSA-N-P38

>  <subsites>  (206) 


>  <placement_batch>  (206) 
CpKRS_FrAncestor_bulkdock_iter2

>  <name>  (206) 
VCWJGRZESPIICF-UHFFFAOYSA-N-P38

$$$$
JJDQQLRBAJCQFB-UHFFFAOYSA-N-P38
     RDKit          3D

 15 15  0  0  0  0  0  0  0  0999 V2000
   -0.4101  -13.2800   25.8496 C   0  0  0  0  0  0  0  0  0  0  0  0
    1.0475  -13.5854   26.0334 C   0  0  0  0  0  0  0  0  0  0  0  0
    1.4362  -14.5055   27.0163 C   0  0  0  0  0  0  0  0  0  0  0  0
    2.7587  -14.9174   27.1251 C   0  0  0  0  0  0  0  0  0  0  0  0
    3.7158  -14.3929   26.2624 C   0  0  0  0  0  0  0  0  0  0  0  0
    3.3806  -13.4216   25.3010 C   0  0  0  0  0  0  0  0  0  0  0  0
    4.5243  -12.9041   24.4485 C   0  0  0  0  0  0  0  0  0  0  0  0
    5.5939  -13.2783   24.7138 O   0  0  0  0  0  0  0  0  0  0  0  0
    4.0529  -11.9312   23.3602 N   0  0  0  0  0  0  0  0  0  0  0  0
    4.8033  -11.1400   22.4293 C   0  0  0  0  0  0  0  0  0  0  0  0
    4.6642   -9.6369   22.6915 C   0  0  0  0  0  0  0  0  0  0  0  0
    5.2458   -9.2186   24.0412 C   0  0  0  0  0  0  0  0  0  0  0  0
    5.3599   -8.8713   21.5746 C   0  0  0  0  0  0  0  0  0  0  0  0
    2.0340  -13.0225   25.2020 C   0  0  0  0  0  0  0  0  0  0  0  0
    1.6689  -12.0697   24.2793 O   0  0  0  0  0  0  0  0  0  0  0  0
  1  2  1  0
  2  3  2  0
  3  4  1  0
  4  5  2  0
  5  6  1  0
  6  7  1  0
  7  8  2  0
  7  9  1  0
  9 10  1  0
 10 11  1  0
 11 12  1  0
 11 13  1  0
  6 14  2  0
 14 15  1  0
 14  2  1  0
M  END
>  <inchikey>  (207) 
JJDQQLRBAJCQFB-UHFFFAOYSA-N

>  <tags>  (207) 
fragmenstein_placed,CpKRS_FrAncestor_bulkdock_iter2

>  <ref_pdb>  (207) 
x0540b

>  <energy_score>  (207) 
-7.770009

>  <distance_score>  (207) 
0.459402

>  <HIPPO Pose ID>  (207) 
53421

>  <ref_mols>  (207) 
x0555a

>  <smiles>  (207) 
Cc1cccc(C(=O)NCC(C)C)c1O

>  <HIPPO Compound ID>  (207) 
313661

>  <alias>  (207) 
JJDQQLRBAJCQFB-UHFFFAOYSA-N-P38

>  <subsites>  (207) 


>  <placement_batch>  (207) 
CpKRS_FrAncestor_bulkdock_iter2

>  <name>  (207) 
JJDQQLRBAJCQFB-UHFFFAOYSA-N-P38

$$$$
NIHPGNMGODURLK-UHFFFAOYSA-N-P38
     RDKit          3D

 14 14  0  0  0  0  0  0  0  0999 V2000
    3.1547  -16.0937   28.1166 C   0  0  0  0  0  0  0  0  0  0  0  0
    2.7624  -14.9735   27.2024 C   0  0  0  0  0  0  0  0  0  0  0  0
    1.4944  -14.3957   27.2715 C   0  0  0  0  0  0  0  0  0  0  0  0
    1.1484  -13.3537   26.4121 C   0  0  0  0  0  0  0  0  0  0  0  0
    2.0743  -12.8624   25.4861 C   0  0  0  0  0  0  0  0  0  0  0  0
    3.3447  -13.4441   25.3799 C   0  0  0  0  0  0  0  0  0  0  0  0
    4.4515  -12.9386   24.4805 C   0  0  0  0  0  0  0  0  0  0  0  0
    5.5357  -13.2376   24.7826 O   0  0  0  0  0  0  0  0  0  0  0  0
    3.9470  -12.0376   23.3398 N   0  0  0  0  0  0  0  0  0  0  0  0
    4.6728  -11.2399   22.3897 C   0  0  0  0  0  0  0  0  0  0  0  0
    4.5766   -9.7346   22.6714 C   0  0  0  0  0  0  0  0  0  0  0  0
    5.2850   -8.9686   21.5598 C   0  0  0  0  0  0  0  0  0  0  0  0
    5.1772   -9.3415   24.0206 C   0  0  0  0  0  0  0  0  0  0  0  0
    3.6654  -14.5113   26.2379 C   0  0  0  0  0  0  0  0  0  0  0  0
  1  2  1  0
  2  3  2  0
  3  4  1  0
  4  5  2  0
  5  6  1  0
  6  7  1  0
  7  8  2  0
  7  9  1  0
  9 10  1  0
 10 11  1  0
 11 12  1  0
 11 13  1  0
  6 14  2  0
 14  2  1  0
M  END
>  <inchikey>  (208) 
NIHPGNMGODURLK-UHFFFAOYSA-N

>  <tags>  (208) 
fragmenstein_placed,CpKRS_FrAncestor_bulkdock_iter2

>  <ref_pdb>  (208) 
x0540b

>  <energy_score>  (208) 
-8.563157

>  <distance_score>  (208) 
0.40541

>  <HIPPO Pose ID>  (208) 
53422

>  <ref_mols>  (208) 
x0555a

>  <smiles>  (208) 
Cc1cccc(C(=O)NCC(C)C)c1

>  <HIPPO Compound ID>  (208) 
447620

>  <alias>  (208) 
NIHPGNMGODURLK-UHFFFAOYSA-N-P38

>  <subsites>  (208) 


>  <placement_batch>  (208) 
CpKRS_FrAncestor_bulkdock_iter2

>  <name>  (208) 
NIHPGNMGODURLK-UHFFFAOYSA-N-P38

$$$$
MWWJTTFZPUPWIB-UHFFFAOYSA-N-P38
     RDKit          3D

 16 16  0  0  0  0  0  0  0  0999 V2000
    1.1821  -14.8715   28.6925 C   0  0  0  0  0  0  0  0  0  0  0  0
    1.9096  -14.4040   27.4684 C   0  0  0  0  0  0  0  0  0  0  0  0
    1.3302  -13.4756   26.5891 C   0  0  0  0  0  0  0  0  0  0  0  0
    2.0265  -12.9653   25.4707 C   0  0  0  0  0  0  0  0  0  0  0  0
    1.2533  -12.0813   24.5356 C   0  0  0  0  0  0  0  0  0  0  0  0
    3.3693  -13.3421   25.2836 C   0  0  0  0  0  0  0  0  0  0  0  0
    4.3017  -12.8617   24.1925 C   0  0  0  0  0  0  0  0  0  0  0  0
    5.0197  -13.6574   23.7514 O   0  0  0  0  0  0  0  0  0  0  0  0
    4.1084  -11.3941   23.8271 N   0  0  0  0  0  0  0  0  0  0  0  0
    4.6883  -10.6137   22.7789 C   0  0  0  0  0  0  0  0  0  0  0  0
    4.6856   -9.1141   22.9997 C   0  0  0  0  0  0  0  0  0  0  0  0
    5.3448   -8.4747   21.7838 C   0  0  0  0  0  0  0  0  0  0  0  0
    5.4309   -8.7112   24.2684 C   0  0  0  0  0  0  0  0  0  0  0  0
    3.9114  -14.3324   26.1265 C   0  0  0  0  0  0  0  0  0  0  0  0
    3.2002  -14.8681   27.2080 C   0  0  0  0  0  0  0  0  0  0  0  0
    3.8236  -15.9539   28.0338 C   0  0  0  0  0  0  0  0  0  0  0  0
  1  2  1  0
  2  3  2  0
  3  4  1  0
  4  5  1  0
  4  6  2  0
  6  7  1  0
  7  8  2  0
  7  9  1  0
  9 10  1  0
 10 11  1  0
 11 12  1  0
 11 13  1  0
  6 14  1  0
 14 15  2  0
 15 16  1  0
 15  2  1  0
M  END
>  <inchikey>  (209) 
MWWJTTFZPUPWIB-UHFFFAOYSA-N

>  <tags>  (209) 
fragmenstein_placed,CpKRS_FrAncestor_bulkdock_iter2

>  <ref_pdb>  (209) 
x0540b

>  <energy_score>  (209) 
-3.498955

>  <distance_score>  (209) 
0.506863

>  <HIPPO Pose ID>  (209) 
53424

>  <ref_mols>  (209) 
x0555a

>  <smiles>  (209) 
Cc1cc(C)c(C(=O)NCC(C)C)cc1C

>  <HIPPO Compound ID>  (209) 
136290

>  <alias>  (209) 
MWWJTTFZPUPWIB-UHFFFAOYSA-N-P38

>  <subsites>  (209) 


>  <placement_batch>  (209) 
CpKRS_FrAncestor_bulkdock_iter2

>  <name>  (209) 
MWWJTTFZPUPWIB-UHFFFAOYSA-N-P38

$$$$
GGVRFTPACSGRFL-UHFFFAOYSA-N-P38
     RDKit          3D

 16 16  0  0  0  0  0  0  0  0999 V2000
   -0.1874  -13.4689   26.0348 C   0  0  0  0  0  0  0  0  0  0  0  0
    1.2501  -13.8276   26.2374 C   0  0  0  0  0  0  0  0  0  0  0  0
    1.6530  -14.7695   27.1862 C   0  0  0  0  0  0  0  0  0  0  0  0
    2.9819  -15.1816   27.2454 C   0  0  0  0  0  0  0  0  0  0  0  0
    3.9212  -14.6375   26.3698 C   0  0  0  0  0  0  0  0  0  0  0  0
    3.5527  -13.6514   25.4416 C   0  0  0  0  0  0  0  0  0  0  0  0
    4.6344  -13.0503   24.5815 C   0  0  0  0  0  0  0  0  0  0  0  0
    5.7285  -13.3765   24.8077 O   0  0  0  0  0  0  0  0  0  0  0  0
    4.0907  -12.0075   23.5934 N   0  0  0  0  0  0  0  0  0  0  0  0
    4.7689  -11.2131   22.6082 C   0  0  0  0  0  0  0  0  0  0  0  0
    4.7295   -9.7006   22.9273 C   0  0  0  0  0  0  0  0  0  0  0  0
    3.3118   -9.2603   23.3205 C   0  0  0  0  0  0  0  0  0  0  0  0
    5.6601   -9.3312   24.0891 C   0  0  0  0  0  0  0  0  0  0  0  0
    5.1974   -8.9405   21.6781 C   0  0  0  0  0  0  0  0  0  0  0  0
    2.2122  -13.2611   25.3959 C   0  0  0  0  0  0  0  0  0  0  0  0
    1.7931  -12.3189   24.5326 F   0  0  0  0  0  0  0  0  0  0  0  0
  1  2  1  0
  2  3  2  0
  3  4  1  0
  4  5  2  0
  5  6  1  0
  6  7  1  0
  7  8  2  0
  7  9  1  0
  9 10  1  0
 10 11  1  0
 11 12  1  0
 11 13  1  0
 11 14  1  0
  6 15  2  0
 15 16  1  0
 15  2  1  0
M  END
>  <inchikey>  (210) 
GGVRFTPACSGRFL-UHFFFAOYSA-N

>  <tags>  (210) 
fragmenstein_placed,CpKRS_FrAncestor_bulkdock_iter2

>  <ref_pdb>  (210) 
x0540b

>  <energy_score>  (210) 
-4.395734

>  <distance_score>  (210) 
0.590445

>  <HIPPO Pose ID>  (210) 
53426

>  <ref_mols>  (210) 
x0555a

>  <smiles>  (210) 
Cc1cccc(C(=O)NCC(C)(C)C)c1F

>  <HIPPO Compound ID>  (210) 
136852

>  <alias>  (210) 
GGVRFTPACSGRFL-UHFFFAOYSA-N-P38

>  <subsites>  (210) 


>  <placement_batch>  (210) 
CpKRS_FrAncestor_bulkdock_iter2

>  <name>  (210) 
GGVRFTPACSGRFL-UHFFFAOYSA-N-P38

$$$$
XWEVMKNARQWGFU-UHFFFAOYSA-N-P38
     RDKit          3D

 16 16  0  0  0  0  0  0  0  0999 V2000
   -0.3419  -13.4682   25.9657 C   0  0  0  0  0  0  0  0  0  0  0  0
    1.1232  -13.7112   26.1962 C   0  0  0  0  0  0  0  0  0  0  0  0
    1.5153  -14.6253   27.1844 C   0  0  0  0  0  0  0  0  0  0  0  0
    2.8363  -15.0374   27.2905 C   0  0  0  0  0  0  0  0  0  0  0  0
    3.7873  -14.5207   26.4199 C   0  0  0  0  0  0  0  0  0  0  0  0
    3.4483  -13.5419   25.4678 C   0  0  0  0  0  0  0  0  0  0  0  0
    4.6013  -13.0244   24.6218 C   0  0  0  0  0  0  0  0  0  0  0  0
    5.6336  -13.5488   24.7203 O   0  0  0  0  0  0  0  0  0  0  0  0
    4.1690  -11.8421   23.7541 N   0  0  0  0  0  0  0  0  0  0  0  0
    4.8865  -11.1104   22.7520 C   0  0  0  0  0  0  0  0  0  0  0  0
    4.7532   -9.5843   22.9045 C   0  0  0  0  0  0  0  0  0  0  0  0
    3.2852   -9.1913   23.1215 C   0  0  0  0  0  0  0  0  0  0  0  0
    5.2869   -8.9371   21.6192 C   0  0  0  0  0  0  0  0  0  0  0  0
    5.5795   -9.0642   24.0894 C   0  0  0  0  0  0  0  0  0  0  0  0
    2.1025  -13.0979   25.3823 C   0  0  0  0  0  0  0  0  0  0  0  0
    1.6631  -12.2375   24.3280 N   0  0  0  0  0  0  0  0  0  0  0  0
  1  2  1  0
  2  3  2  0
  3  4  1  0
  4  5  2  0
  5  6  1  0
  6  7  1  0
  7  8  2  0
  7  9  1  0
  9 10  1  0
 10 11  1  0
 11 12  1  0
 11 13  1  0
 11 14  1  0
  6 15  2  0
 15 16  1  0
 15  2  1  0
M  END
>  <inchikey>  (211) 
XWEVMKNARQWGFU-UHFFFAOYSA-N

>  <tags>  (211) 
fragmenstein_placed,CpKRS_FrAncestor_bulkdock_iter2

>  <ref_pdb>  (211) 
x0540b

>  <energy_score>  (211) 
-37.784053

>  <distance_score>  (211) 
0.353661

>  <HIPPO Pose ID>  (211) 
53427

>  <ref_mols>  (211) 
x0555a

>  <smiles>  (211) 
Cc1cccc(C(=O)NCC(C)(C)C)c1N

>  <HIPPO Compound ID>  (211) 
127296

>  <alias>  (211) 
XWEVMKNARQWGFU-UHFFFAOYSA-N-P38

>  <subsites>  (211) 


>  <placement_batch>  (211) 
CpKRS_FrAncestor_bulkdock_iter2

>  <name>  (211) 
XWEVMKNARQWGFU-UHFFFAOYSA-N-P38

$$$$
APKUHXFOLLTXDY-UHFFFAOYSA-N-P38
     RDKit          3D

 16 16  0  0  0  0  0  0  0  0999 V2000
   -0.3103  -13.4429   25.9872 C   0  0  0  0  0  0  0  0  0  0  0  0
    1.1494  -13.7473   26.1446 C   0  0  0  0  0  0  0  0  0  0  0  0
    1.5618  -14.6747   27.1101 C   0  0  0  0  0  0  0  0  0  0  0  0
    2.8894  -15.0786   27.1917 C   0  0  0  0  0  0  0  0  0  0  0  0
    3.8312  -14.5341   26.3246 C   0  0  0  0  0  0  0  0  0  0  0  0
    3.4722  -13.5541   25.3832 C   0  0  0  0  0  0  0  0  0  0  0  0
    4.6031  -12.9871   24.5434 C   0  0  0  0  0  0  0  0  0  0  0  0
    5.6830  -13.3503   24.7759 O   0  0  0  0  0  0  0  0  0  0  0  0
    4.1038  -11.9211   23.5643 N   0  0  0  0  0  0  0  0  0  0  0  0
    4.8145  -11.1407   22.5952 C   0  0  0  0  0  0  0  0  0  0  0  0
    4.8022   -9.6323   22.9281 C   0  0  0  0  0  0  0  0  0  0  0  0
    5.7284   -9.2942   24.1024 C   0  0  0  0  0  0  0  0  0  0  0  0
    5.2897   -8.8722   21.6880 C   0  0  0  0  0  0  0  0  0  0  0  0
    3.3940   -9.1617   23.3160 C   0  0  0  0  0  0  0  0  0  0  0  0
    2.1174  -13.1718   25.3031 C   0  0  0  0  0  0  0  0  0  0  0  0
    1.7208  -12.2198   24.3909 O   0  0  0  0  0  0  0  0  0  0  0  0
  1  2  1  0
  2  3  2  0
  3  4  1  0
  4  5  2  0
  5  6  1  0
  6  7  1  0
  7  8  2  0
  7  9  1  0
  9 10  1  0
 10 11  1  0
 11 12  1  0
 11 13  1  0
 11 14  1  0
  6 15  2  0
 15 16  1  0
 15  2  1  0
M  END
>  <inchikey>  (212) 
APKUHXFOLLTXDY-UHFFFAOYSA-N

>  <tags>  (212) 
fragmenstein_placed,CpKRS_FrAncestor_bulkdock_iter2

>  <ref_pdb>  (212) 
x0540b

>  <energy_score>  (212) 
-20.327085

>  <distance_score>  (212) 
0.492933

>  <HIPPO Pose ID>  (212) 
53428

>  <ref_mols>  (212) 
x0555a

>  <smiles>  (212) 
Cc1cccc(C(=O)NCC(C)(C)C)c1O

>  <HIPPO Compound ID>  (212) 
136822

>  <alias>  (212) 
APKUHXFOLLTXDY-UHFFFAOYSA-N-P38

>  <subsites>  (212) 


>  <placement_batch>  (212) 
CpKRS_FrAncestor_bulkdock_iter2

>  <name>  (212) 
APKUHXFOLLTXDY-UHFFFAOYSA-N-P38

$$$$
LWSSJNBHSFIPNU-UHFFFAOYSA-N-P38
     RDKit          3D

 15 15  0  0  0  0  0  0  0  0999 V2000
    3.2700  -16.1342   28.2273 C   0  0  0  0  0  0  0  0  0  0  0  0
    2.8187  -15.0534   27.2953 C   0  0  0  0  0  0  0  0  0  0  0  0
    1.5267  -14.5344   27.3752 C   0  0  0  0  0  0  0  0  0  0  0  0
    1.1207  -13.5305   26.5009 C   0  0  0  0  0  0  0  0  0  0  0  0
    2.0136  -13.0135   25.5565 C   0  0  0  0  0  0  0  0  0  0  0  0
    3.3173  -13.5237   25.4489 C   0  0  0  0  0  0  0  0  0  0  0  0
    4.4101  -12.9529   24.5594 C   0  0  0  0  0  0  0  0  0  0  0  0
    5.4992  -13.2931   24.7897 O   0  0  0  0  0  0  0  0  0  0  0  0
    3.8813  -11.9234   23.5487 N   0  0  0  0  0  0  0  0  0  0  0  0
    4.5703  -11.1641   22.5430 C   0  0  0  0  0  0  0  0  0  0  0  0
    4.7119   -9.6701   22.9176 C   0  0  0  0  0  0  0  0  0  0  0  0
    3.3636   -9.0707   23.3385 C   0  0  0  0  0  0  0  0  0  0  0  0
    5.6762   -9.4568   24.0901 C   0  0  0  0  0  0  0  0  0  0  0  0
    5.2639   -8.9215   21.6965 C   0  0  0  0  0  0  0  0  0  0  0  0
    3.6915  -14.5652   26.3151 C   0  0  0  0  0  0  0  0  0  0  0  0
  1  2  1  0
  2  3  2  0
  3  4  1  0
  4  5  2  0
  5  6  1  0
  6  7  1  0
  7  8  2  0
  7  9  1  0
  9 10  1  0
 10 11  1  0
 11 12  1  0
 11 13  1  0
 11 14  1  0
  6 15  2  0
 15  2  1  0
M  END
>  <inchikey>  (213) 
LWSSJNBHSFIPNU-UHFFFAOYSA-N

>  <tags>  (213) 
fragmenstein_placed,CpKRS_FrAncestor_bulkdock_iter2

>  <ref_pdb>  (213) 
x0540b

>  <energy_score>  (213) 
-4.480055

>  <distance_score>  (213) 
0.387061

>  <HIPPO Pose ID>  (213) 
53430

>  <ref_mols>  (213) 
x0555a

>  <smiles>  (213) 
Cc1cccc(C(=O)NCC(C)(C)C)c1

>  <HIPPO Compound ID>  (213) 
314257

>  <alias>  (213) 
LWSSJNBHSFIPNU-UHFFFAOYSA-N-P38

>  <subsites>  (213) 


>  <placement_batch>  (213) 
CpKRS_FrAncestor_bulkdock_iter2

>  <name>  (213) 
LWSSJNBHSFIPNU-UHFFFAOYSA-N-P38

$$$$
LMDGXJYSTHACMN-UHFFFAOYSA-N-P38
     RDKit          3D

 17 17  0  0  0  0  0  0  0  0999 V2000
   -0.3520  -13.3506   25.9499 C   0  0  0  0  0  0  0  0  0  0  0  0
    1.0715  -13.6907   26.2744 C   0  0  0  0  0  0  0  0  0  0  0  0
    1.3915  -14.5697   27.3135 C   0  0  0  0  0  0  0  0  0  0  0  0
    2.6970  -15.0269   27.4833 C   0  0  0  0  0  0  0  0  0  0  0  0
    3.7094  -14.5632   26.6472 C   0  0  0  0  0  0  0  0  0  0  0  0
    3.4358  -13.6032   25.6652 C   0  0  0  0  0  0  0  0  0  0  0  0
    4.5952  -13.0784   24.8657 C   0  0  0  0  0  0  0  0  0  0  0  0
    5.5348  -13.7562   24.7701 O   0  0  0  0  0  0  0  0  0  0  0  0
    4.2817  -11.7165   24.2287 N   0  0  0  0  0  0  0  0  0  0  0  0
    5.0230  -10.9393   23.2578 C   0  0  1  0  0  0  0  0  0  0  0  0
    4.8999  -11.7039   21.9451 C   0  0  0  0  0  0  0  0  0  0  0  0
    4.6066   -9.4423   23.1796 C   0  0  0  0  0  0  0  0  0  0  0  0
    3.0783   -9.2777   23.2243 C   0  0  0  0  0  0  0  0  0  0  0  0
    5.2165   -8.6845   24.3743 C   0  0  0  0  0  0  0  0  0  0  0  0
    5.1564   -8.7799   21.8988 C   0  0  0  0  0  0  0  0  0  0  0  0
    2.1062  -13.2034   25.4722 C   0  0  0  0  0  0  0  0  0  0  0  0
    1.7514  -12.3580   24.4509 O   0  0  0  0  0  0  0  0  0  0  0  0
  1  2  1  0
  2  3  2  0
  3  4  1  0
  4  5  2  0
  5  6  1  0
  6  7  1  0
  7  8  2  0
  7  9  1  0
  9 10  1  0
 10 11  1  6
 10 12  1  0
 12 13  1  0
 12 14  1  0
 12 15  1  0
  6 16  2  0
 16 17  1  0
 16  2  1  0
M  END
>  <inchikey>  (214) 
LMDGXJYSTHACMN-UHFFFAOYSA-N

>  <tags>  (214) 
fragmenstein_placed,CpKRS_FrAncestor_bulkdock_iter2

>  <ref_pdb>  (214) 
x0540b

>  <energy_score>  (214) 
-23.667132

>  <distance_score>  (214) 
0.394904

>  <HIPPO Pose ID>  (214) 
53431

>  <ref_mols>  (214) 
x0555a

>  <smiles>  (214) 
Cc1cccc(C(=O)NC(C)C(C)(C)C)c1O

>  <HIPPO Compound ID>  (214) 
447621

>  <alias>  (214) 
LMDGXJYSTHACMN-UHFFFAOYSA-N-P38

>  <subsites>  (214) 


>  <placement_batch>  (214) 
CpKRS_FrAncestor_bulkdock_iter2

>  <name>  (214) 
LMDGXJYSTHACMN-UHFFFAOYSA-N-P38

$$$$
RVOVWGNWXYGJSJ-UHFFFAOYSA-N-P38
     RDKit          3D

 17 17  0  0  0  0  0  0  0  0999 V2000
   -0.1673  -13.5736   26.1155 C   0  0  0  0  0  0  0  0  0  0  0  0
    1.2726  -13.9237   26.3080 C   0  0  0  0  0  0  0  0  0  0  0  0
    1.6917  -14.8644   27.2507 C   0  0  0  0  0  0  0  0  0  0  0  0
    3.0241  -15.2687   27.2961 C   0  0  0  0  0  0  0  0  0  0  0  0
    3.9523  -14.7180   26.4134 C   0  0  0  0  0  0  0  0  0  0  0  0
    3.5658  -13.7345   25.4922 C   0  0  0  0  0  0  0  0  0  0  0  0
    4.6332  -13.0978   24.6430 C   0  0  0  0  0  0  0  0  0  0  0  0
    5.7356  -13.4038   24.8513 O   0  0  0  0  0  0  0  0  0  0  0  0
    4.0572  -12.0472   23.6850 N   0  0  0  0  0  0  0  0  0  0  0  0
    4.7080  -11.2153   22.7108 C   0  0  0  0  0  0  0  0  0  0  0  0
    4.6693   -9.7284   23.1136 C   0  0  0  0  0  0  0  0  0  0  0  0
    3.2470   -9.2964   23.5093 C   0  0  0  0  0  0  0  0  0  0  0  0
    5.6025   -9.4026   24.2816 C   0  0  0  0  0  0  0  0  0  0  0  0
    5.1204   -8.9385   21.9699 C   0  0  0  0  0  0  0  0  0  0  0  0
    5.4728   -8.2625   21.1028 N   0  0  0  0  0  0  0  0  0  0  0  0
    2.2220  -13.3515   25.4597 C   0  0  0  0  0  0  0  0  0  0  0  0
    1.7882  -12.4080   24.6039 F   0  0  0  0  0  0  0  0  0  0  0  0
  1  2  1  0
  2  3  2  0
  3  4  1  0
  4  5  2  0
  5  6  1  0
  6  7  1  0
  7  8  2  0
  7  9  1  0
  9 10  1  0
 10 11  1  0
 11 12  1  0
 11 13  1  0
 11 14  1  0
 14 15  3  0
  6 16  2  0
 16 17  1  0
 16  2  1  0
M  END
>  <inchikey>  (215) 
RVOVWGNWXYGJSJ-UHFFFAOYSA-N

>  <tags>  (215) 
fragmenstein_placed,CpKRS_FrAncestor_bulkdock_iter2

>  <ref_pdb>  (215) 
x0540b

>  <energy_score>  (215) 
-7.580294

>  <distance_score>  (215) 
0.634376

>  <HIPPO Pose ID>  (215) 
53433

>  <ref_mols>  (215) 
x0555a

>  <smiles>  (215) 
Cc1cccc(C(=O)NCC(C)(C)C#N)c1F

>  <HIPPO Compound ID>  (215) 
447623

>  <alias>  (215) 
RVOVWGNWXYGJSJ-UHFFFAOYSA-N-P38

>  <subsites>  (215) 


>  <placement_batch>  (215) 
CpKRS_FrAncestor_bulkdock_iter2

>  <name>  (215) 
RVOVWGNWXYGJSJ-UHFFFAOYSA-N-P38

$$$$
AAPJKZVYCYLXQJ-UHFFFAOYSA-N-P38
     RDKit          3D

 16 16  0  0  0  0  0  0  0  0999 V2000
    3.5489  -15.9573   28.0386 C   0  0  0  0  0  0  0  0  0  0  0  0
    2.9160  -14.9039   27.1809 C   0  0  0  0  0  0  0  0  0  0  0  0
    1.5689  -14.5718   27.3731 C   0  0  0  0  0  0  0  0  0  0  0  0
    0.9426  -13.6495   26.5379 C   0  0  0  0  0  0  0  0  0  0  0  0
    1.6661  -13.0292   25.5211 C   0  0  0  0  0  0  0  0  0  0  0  0
    3.0298  -13.3142   25.3426 C   0  0  0  0  0  0  0  0  0  0  0  0
    3.7985  -12.6474   24.2439 C   0  0  0  0  0  0  0  0  0  0  0  0
    4.5527  -13.2806   23.6249 O   0  0  0  0  0  0  0  0  0  0  0  0
    3.3455  -11.1846   24.0716 N   0  0  0  0  0  0  0  0  0  0  0  0
    3.6554  -10.2246   23.0439 C   0  0  0  0  0  0  0  0  0  0  0  0
    5.0722   -9.6458   23.1091 C   0  0  0  0  0  0  0  0  0  0  0  0
    5.4243   -8.9920   21.7809 C   0  0  0  0  0  0  0  0  0  0  0  0
    5.2397   -8.6601   24.2559 C   0  0  0  0  0  0  0  0  0  0  0  0
    5.9584  -10.6575   23.3142 F   0  0  0  0  0  0  0  0  0  0  0  0
    3.6361  -14.2796   26.1516 C   0  0  0  0  0  0  0  0  0  0  0  0
    4.9295  -14.5972   25.9843 F   0  0  0  0  0  0  0  0  0  0  0  0
  1  2  1  0
  2  3  2  0
  3  4  1  0
  4  5  2  0
  5  6  1  0
  6  7  1  0
  7  8  2  0
  7  9  1  0
  9 10  1  0
 10 11  1  0
 11 12  1  0
 11 13  1  0
 11 14  1  0
  6 15  2  0
 15 16  1  0
 15  2  1  0
M  END
>  <inchikey>  (216) 
AAPJKZVYCYLXQJ-UHFFFAOYSA-N

>  <tags>  (216) 
fragmenstein_placed,CpKRS_FrAncestor_bulkdock_iter2

>  <ref_pdb>  (216) 
x0540b

>  <energy_score>  (216) 
-0.505888

>  <distance_score>  (216) 
0.678357

>  <HIPPO Pose ID>  (216) 
53434

>  <ref_mols>  (216) 
x0555a

>  <smiles>  (216) 
Cc1cccc(C(=O)NCC(C)(C)F)c1F

>  <HIPPO Compound ID>  (216) 
122274

>  <alias>  (216) 
AAPJKZVYCYLXQJ-UHFFFAOYSA-N-P38

>  <subsites>  (216) 


>  <placement_batch>  (216) 
CpKRS_FrAncestor_bulkdock_iter2

>  <name>  (216) 
AAPJKZVYCYLXQJ-UHFFFAOYSA-N-P38

$$$$
QULKNERGEUUCKX-DTWKUNHWSA-N-P20
     RDKit          3D

 15 16  0  0  0  0  0  0  0  0999 V2000
    5.0086    9.3817   40.7927 C   0  0  0  0  0  0  0  0  0  0  0  0
    5.0166    7.8864   40.8905 C   0  0  0  0  0  0  0  0  0  0  0  0
    5.7904    7.1432   39.9999 C   0  0  0  0  0  0  0  0  0  0  0  0
    5.7765    5.7557   40.0831 C   0  0  0  0  0  0  0  0  0  0  0  0
    4.9695    5.1450   41.0323 C   0  0  0  0  0  0  0  0  0  0  0  0
    4.2092    5.9551   41.8713 C   0  0  0  0  0  0  0  0  0  0  0  0
    3.3131    5.3180   42.9031 C   0  0  0  0  0  0  0  0  0  0  0  0
    3.1211    4.1692   42.8578 O   0  0  0  0  0  0  0  0  0  0  0  0
    2.8221    6.3727   43.9115 N   0  0  0  0  0  0  0  0  0  0  0  0
    2.0727    6.2234   45.1252 C   0  0  0  0  0  0  0  0  0  0  0  0
    2.8715    5.4870   46.1491 C   0  0  2  0  0  0  0  0  0  0  0  0
    3.1765    4.0125   45.9981 C   0  0  0  0  0  0  0  0  0  0  0  0
    2.1862    4.4694   47.0138 C   0  0  1  0  0  0  0  0  0  0  0  0
    2.5684    4.3609   48.3311 F   0  0  0  0  0  0  0  0  0  0  0  0
    4.2508    7.3188   41.8561 N   0  0  0  0  0  0  0  0  0  0  0  0
  1  2  1  0
  2  3  2  0
  3  4  1  0
  4  5  2  0
  5  6  1  0
  6  7  1  0
  7  8  2  0
  7  9  1  0
  9 10  1  0
 11 10  1  6
 11 12  1  0
 12 13  1  0
 13 14  1  1
  6 15  2  0
 15  2  1  0
 13 11  1  0
M  END
>  <inchikey>  (217) 
QULKNERGEUUCKX-UHFFFAOYSA-N

>  <tags>  (217) 
fragmenstein_placed,CpKRS_FrAncestor_bulkdock_iter2

>  <ref_pdb>  (217) 
x0540b

>  <energy_score>  (217) 
-5.965619

>  <distance_score>  (217) 
0.333846

>  <HIPPO Pose ID>  (217) 
53439

>  <ref_mols>  (217) 
x0456a

>  <smiles>  (217) 
Cc1cccc(C(=O)NC[C@@H]2C[C@H]2F)n1

>  <HIPPO Compound ID>  (217) 
315568

>  <alias>  (217) 
QULKNERGEUUCKX-DTWKUNHWSA-N-P20

>  <subsites>  (217) 


>  <placement_batch>  (217) 
CpKRS_FrAncestor_bulkdock_iter2

>  <name>  (217) 
QULKNERGEUUCKX-DTWKUNHWSA-N-P20

$$$$
HZPLHNFJXLSHCY-SECBINFHSA-N-P20
     RDKit          3D

 15 16  0  0  0  0  0  0  0  0999 V2000
    4.7952    9.3234   40.9061 C   0  0  0  0  0  0  0  0  0  0  0  0
    4.8836    7.8281   40.9592 C   0  0  0  0  0  0  0  0  0  0  0  0
    5.6616    7.1534   40.0187 C   0  0  0  0  0  0  0  0  0  0  0  0
    5.7335    5.7661   40.0679 C   0  0  0  0  0  0  0  0  0  0  0  0
    5.0130    5.0873   41.0402 C   0  0  0  0  0  0  0  0  0  0  0  0
    4.2479    5.8300   41.9358 C   0  0  0  0  0  0  0  0  0  0  0  0
    3.4726    5.1125   43.0127 C   0  0  0  0  0  0  0  0  0  0  0  0
    3.3942    3.9499   42.9744 O   0  0  0  0  0  0  0  0  0  0  0  0
    2.9274    6.1159   44.0455 N   0  0  0  0  0  0  0  0  0  0  0  0
    2.0893    5.9093   45.1993 C   0  0  2  0  0  0  0  0  0  0  0  0
    1.5034    7.2021   45.7386 C   0  0  0  0  0  0  0  0  0  0  0  0
    2.8996    5.2209   46.2620 C   0  0  0  0  0  0  0  0  0  0  0  0
    3.1827    3.7450   46.1701 C   0  0  0  0  0  0  0  0  0  0  0  0
    2.2424    4.2574   47.2206 C   0  0  0  0  0  0  0  0  0  0  0  0
    4.1956    7.1942   41.9431 N   0  0  0  0  0  0  0  0  0  0  0  0
  1  2  1  0
  2  3  2  0
  3  4  1  0
  4  5  2  0
  5  6  1  0
  6  7  1  0
  7  8  2  0
  7  9  1  0
  9 10  1  0
 10 11  1  1
 10 12  1  0
 12 13  1  0
 13 14  1  0
  6 15  2  0
 15  2  1  0
 14 12  1  0
M  END
>  <inchikey>  (218) 
HZPLHNFJXLSHCY-UHFFFAOYSA-N

>  <tags>  (218) 
fragmenstein_placed,CpKRS_FrAncestor_bulkdock_iter2

>  <ref_pdb>  (218) 
x0540b

>  <energy_score>  (218) 
-3.761793

>  <distance_score>  (218) 
0.201706

>  <HIPPO Pose ID>  (218) 
53440

>  <ref_mols>  (218) 
x0456a

>  <smiles>  (218) 
Cc1cccc(C(=O)N[C@H](C)C2CC2)n1

>  <HIPPO Compound ID>  (218) 
9

>  <alias>  (218) 
HZPLHNFJXLSHCY-SECBINFHSA-N-P20

>  <subsites>  (218) 


>  <placement_batch>  (218) 
CpKRS_FrAncestor_bulkdock_iter2

>  <name>  (218) 
HZPLHNFJXLSHCY-SECBINFHSA-N-P20

$$$$
UXQTZRFTLDBOPE-UHFFFAOYSA-N-P38
     RDKit          3D

 16 16  0  0  0  0  0  0  0  0999 V2000
   -0.2053  -13.4464   26.0040 C   0  0  0  0  0  0  0  0  0  0  0  0
    1.2374  -13.7925   26.1930 C   0  0  0  0  0  0  0  0  0  0  0  0
    1.6532  -14.7458   27.1248 C   0  0  0  0  0  0  0  0  0  0  0  0
    2.9861  -15.1461   27.1726 C   0  0  0  0  0  0  0  0  0  0  0  0
    3.9161  -14.5809   26.3004 C   0  0  0  0  0  0  0  0  0  0  0  0
    3.5337  -13.5861   25.3865 C   0  0  0  0  0  0  0  0  0  0  0  0
    4.6017  -12.9634   24.5268 C   0  0  0  0  0  0  0  0  0  0  0  0
    5.6988  -13.2689   24.7597 O   0  0  0  0  0  0  0  0  0  0  0  0
    4.0476  -11.9392   23.5394 N   0  0  0  0  0  0  0  0  0  0  0  0
    4.6929  -11.1625   22.5896 O   0  0  0  0  0  0  0  0  0  0  0  0
    4.6504   -9.7627   22.9265 C   0  0  0  0  0  0  0  0  0  0  0  0
    5.1131   -9.0336   21.6614 C   0  0  0  0  0  0  0  0  0  0  0  0
    5.6188   -9.4224   24.0593 C   0  0  0  0  0  0  0  0  0  0  0  0
    3.2401   -9.3073   23.3208 C   0  0  0  0  0  0  0  0  0  0  0  0
    2.1907  -13.2061   25.3551 C   0  0  0  0  0  0  0  0  0  0  0  0
    1.7661  -12.2529   24.5078 F   0  0  0  0  0  0  0  0  0  0  0  0
  1  2  1  0
  2  3  2  0
  3  4  1  0
  4  5  2  0
  5  6  1  0
  6  7  1  0
  7  8  2  0
  7  9  1  0
  9 10  1  0
 10 11  1  0
 11 12  1  0
 11 13  1  0
 11 14  1  0
  6 15  2  0
 15 16  1  0
 15  2  1  0
M  END
>  <inchikey>  (219) 
UXQTZRFTLDBOPE-UHFFFAOYSA-N

>  <tags>  (219) 
fragmenstein_placed,CpKRS_FrAncestor_bulkdock_iter2

>  <ref_pdb>  (219) 
x0540b

>  <energy_score>  (219) 
-1.298142

>  <distance_score>  (219) 
0.5955

>  <HIPPO Pose ID>  (219) 
53444

>  <ref_mols>  (219) 
x0555a

>  <smiles>  (219) 
Cc1cccc(C(=O)NOC(C)(C)C)c1F

>  <HIPPO Compound ID>  (219) 
137295

>  <alias>  (219) 
UXQTZRFTLDBOPE-UHFFFAOYSA-N-P38

>  <subsites>  (219) 


>  <placement_batch>  (219) 
CpKRS_FrAncestor_bulkdock_iter2

>  <name>  (219) 
UXQTZRFTLDBOPE-UHFFFAOYSA-N-P38

$$$$
WKUFHSNHMPLABE-UHFFFAOYSA-N-P38
     RDKit          3D

 16 16  0  0  0  0  0  0  0  0999 V2000
   -0.2981  -13.3940   25.9498 C   0  0  0  0  0  0  0  0  0  0  0  0
    1.1588  -13.7110   26.1120 C   0  0  0  0  0  0  0  0  0  0  0  0
    1.5582  -14.6477   27.0739 C   0  0  0  0  0  0  0  0  0  0  0  0
    2.8830  -15.0594   27.1632 C   0  0  0  0  0  0  0  0  0  0  0  0
    3.8350  -14.5136   26.3080 C   0  0  0  0  0  0  0  0  0  0  0  0
    3.4887  -13.5254   25.3701 C   0  0  0  0  0  0  0  0  0  0  0  0
    4.6253  -12.9564   24.5414 C   0  0  0  0  0  0  0  0  0  0  0  0
    5.6981  -13.3362   24.7732 O   0  0  0  0  0  0  0  0  0  0  0  0
    4.1461  -11.8775   23.5812 N   0  0  0  0  0  0  0  0  0  0  0  0
    4.8464  -11.1181   22.6563 O   0  0  0  0  0  0  0  0  0  0  0  0
    4.7399   -9.7097   22.9327 C   0  0  0  0  0  0  0  0  0  0  0  0
    5.6618   -9.2981   24.0806 C   0  0  0  0  0  0  0  0  0  0  0  0
    3.3043   -9.2815   23.2585 C   0  0  0  0  0  0  0  0  0  0  0  0
    5.2119   -9.0178   21.6507 C   0  0  0  0  0  0  0  0  0  0  0  0
    2.1371  -13.1379   25.2810 C   0  0  0  0  0  0  0  0  0  0  0  0
    1.7581  -12.1819   24.3665 O   0  0  0  0  0  0  0  0  0  0  0  0
  1  2  1  0
  2  3  2  0
  3  4  1  0
  4  5  2  0
  5  6  1  0
  6  7  1  0
  7  8  2  0
  7  9  1  0
  9 10  1  0
 10 11  1  0
 11 12  1  0
 11 13  1  0
 11 14  1  0
  6 15  2  0
 15 16  1  0
 15  2  1  0
M  END
>  <inchikey>  (220) 
WKUFHSNHMPLABE-UHFFFAOYSA-N

>  <tags>  (220) 
fragmenstein_placed,CpKRS_FrAncestor_bulkdock_iter2

>  <ref_pdb>  (220) 
x0540b

>  <energy_score>  (220) 
-7.869885

>  <distance_score>  (220) 
0.490031

>  <HIPPO Pose ID>  (220) 
53445

>  <ref_mols>  (220) 
x0555a

>  <smiles>  (220) 
Cc1cccc(C(=O)NOC(C)(C)C)c1O

>  <HIPPO Compound ID>  (220) 
137275

>  <alias>  (220) 
WKUFHSNHMPLABE-UHFFFAOYSA-N-P38

>  <subsites>  (220) 


>  <placement_batch>  (220) 
CpKRS_FrAncestor_bulkdock_iter2

>  <name>  (220) 
WKUFHSNHMPLABE-UHFFFAOYSA-N-P38

$$$$
CEAHTAAXOXVEBY-UHFFFAOYSA-N-P21
     RDKit          3D

 14 14  0  0  0  0  0  0  0  0999 V2000
   26.9711    7.0033   27.0729 C   0  0  0  0  0  0  0  0  0  0  0  0
   25.7271    6.5690   26.3498 C   0  0  0  0  0  0  0  0  0  0  0  0
   25.3128    5.2376   26.4744 C   0  0  0  0  0  0  0  0  0  0  0  0
   24.1857    4.7874   25.7989 C   0  0  0  0  0  0  0  0  0  0  0  0
   23.4447    5.6625   25.0070 C   0  0  0  0  0  0  0  0  0  0  0  0
   23.8226    7.0051   24.8661 C   0  0  0  0  0  0  0  0  0  0  0  0
   22.9670    7.9115   24.0111 C   0  0  0  0  0  0  0  0  0  0  0  0
   22.2533    8.8097   24.8440 O   0  0  0  0  0  0  0  0  0  0  0  0
   21.9424   10.2689   24.2205 S   0  0  0  0  0  0  0  0  0  0  0  0
   21.1591   11.0897   25.4566 N   0  0  0  0  0  0  0  0  0  0  0  0
   20.9999   10.1596   23.1356 O   0  0  0  0  0  0  0  0  0  0  0  0
   23.1915   10.9657   24.0390 O   0  0  0  0  0  0  0  0  0  0  0  0
   24.9869    7.4444   25.5262 C   0  0  0  0  0  0  0  0  0  0  0  0
   25.5608    9.0648   25.2995 Cl  0  0  0  0  0  0  0  0  0  0  0  0
  1  2  1  0
  2  3  2  0
  3  4  1  0
  4  5  2  0
  5  6  1  0
  6  7  1  0
  7  8  1  0
  8  9  1  0
  9 10  1  0
  9 11  2  0
  9 12  2  0
  6 13  2  0
 13 14  1  0
 13  2  1  0
M  END
>  <inchikey>  (221) 
CEAHTAAXOXVEBY-UHFFFAOYSA-N

>  <tags>  (221) 
fragmenstein_placed,CpKRS_FrAncestor_bulkdock_iter2

>  <ref_pdb>  (221) 
x0540b

>  <energy_score>  (221) 
-30.840449

>  <distance_score>  (221) 
0.360538

>  <HIPPO Pose ID>  (221) 
53446

>  <ref_mols>  (221) 
x0472a

>  <smiles>  (221) 
Cc1cccc(COS(N)(=O)=O)c1Cl

>  <HIPPO Compound ID>  (221) 
447625

>  <alias>  (221) 
CEAHTAAXOXVEBY-UHFFFAOYSA-N-P21

>  <subsites>  (221) 


>  <placement_batch>  (221) 
CpKRS_FrAncestor_bulkdock_iter2

>  <name>  (221) 
CEAHTAAXOXVEBY-UHFFFAOYSA-N-P21

$$$$
SQRNLYAZSYTIBM-UHFFFAOYSA-N-P21
     RDKit          3D

 14 14  0  0  0  0  0  0  0  0999 V2000
   26.9676    7.0053   27.0239 C   0  0  0  0  0  0  0  0  0  0  0  0
   25.7328    6.5431   26.3009 C   0  0  0  0  0  0  0  0  0  0  0  0
   25.3173    5.2196   26.4912 C   0  0  0  0  0  0  0  0  0  0  0  0
   24.1883    4.7369   25.8454 C   0  0  0  0  0  0  0  0  0  0  0  0
   23.4344    5.5799   25.0343 C   0  0  0  0  0  0  0  0  0  0  0  0
   23.8093    6.9137   24.8302 C   0  0  0  0  0  0  0  0  0  0  0  0
   22.9015    7.7934   23.9904 C   0  0  0  0  0  0  0  0  0  0  0  0
   22.2537    8.7339   24.8337 O   0  0  0  0  0  0  0  0  0  0  0  0
   21.9976   10.2056   24.2179 S   0  0  0  0  0  0  0  0  0  0  0  0
   21.2036   11.0364   25.4425 N   0  0  0  0  0  0  0  0  0  0  0  0
   23.2709   10.8712   24.0836 O   0  0  0  0  0  0  0  0  0  0  0  0
   21.0785   10.1388   23.1100 O   0  0  0  0  0  0  0  0  0  0  0  0
   25.0088    7.3838   25.4207 C   0  0  0  0  0  0  0  0  0  0  0  0
   25.4965    8.7736   25.1117 C   0  0  0  0  0  0  0  0  0  0  0  0
  1  2  1  0
  2  3  2  0
  3  4  1  0
  4  5  2  0
  5  6  1  0
  6  7  1  0
  7  8  1  0
  8  9  1  0
  9 10  1  0
  9 11  2  0
  9 12  2  0
  6 13  2  0
 13 14  1  0
 13  2  1  0
M  END
>  <inchikey>  (222) 
SQRNLYAZSYTIBM-UHFFFAOYSA-N

>  <tags>  (222) 
fragmenstein_placed,CpKRS_FrAncestor_bulkdock_iter2

>  <ref_pdb>  (222) 
x0540b

>  <energy_score>  (222) 
-29.572265

>  <distance_score>  (222) 
0.387217

>  <HIPPO Pose ID>  (222) 
53449

>  <ref_mols>  (222) 
x0472a

>  <smiles>  (222) 
Cc1cccc(COS(N)(=O)=O)c1C

>  <HIPPO Compound ID>  (222) 
447626

>  <alias>  (222) 
SQRNLYAZSYTIBM-UHFFFAOYSA-N-P21

>  <subsites>  (222) 


>  <placement_batch>  (222) 
CpKRS_FrAncestor_bulkdock_iter2

>  <name>  (222) 
SQRNLYAZSYTIBM-UHFFFAOYSA-N-P21

$$$$
BOAAHIPUWVVDOZ-UHFFFAOYSA-N-P23
     RDKit          3D

 13 13  0  0  0  0  0  0  0  0999 V2000
   24.9810    3.9497   26.1549 C   0  0  0  0  0  0  0  0  0  0  0  0
   24.7767    5.4219   25.9565 C   0  0  0  0  0  0  0  0  0  0  0  0
   25.8403    6.3174   26.0843 C   0  0  0  0  0  0  0  0  0  0  0  0
   25.6435    7.6762   25.8474 C   0  0  0  0  0  0  0  0  0  0  0  0
   24.3794    8.1521   25.4951 C   0  0  0  0  0  0  0  0  0  0  0  0
   23.2952    7.2769   25.3696 C   0  0  0  0  0  0  0  0  0  0  0  0
   21.8983    7.7782   25.0922 C   0  0  0  0  0  0  0  0  0  0  0  0
   21.8538    8.6807   24.0066 O   0  0  0  0  0  0  0  0  0  0  0  0
   21.5728   10.2488   24.2682 S   0  0  0  0  0  0  0  0  0  0  0  0
   20.4429   10.6076   23.0758 N   0  0  0  0  0  0  0  0  0  0  0  0
   22.7623   10.9968   23.9500 O   0  0  0  0  0  0  0  0  0  0  0  0
   20.8457   10.4349   25.5023 O   0  0  0  0  0  0  0  0  0  0  0  0
   23.5186    5.9082   25.5793 C   0  0  0  0  0  0  0  0  0  0  0  0
  1  2  1  0
  2  3  2  0
  3  4  1  0
  4  5  2  0
  5  6  1  0
  6  7  1  0
  7  8  1  0
  8  9  1  0
  9 10  1  0
  9 11  2  0
  9 12  2  0
  6 13  2  0
 13  2  1  0
M  END
>  <inchikey>  (223) 
BOAAHIPUWVVDOZ-UHFFFAOYSA-N

>  <tags>  (223) 
fragmenstein_placed,CpKRS_FrAncestor_bulkdock_iter2

>  <ref_pdb>  (223) 
x0540b

>  <energy_score>  (223) 
-21.452756

>  <distance_score>  (223) 
0.308933

>  <HIPPO Pose ID>  (223) 
53454

>  <ref_mols>  (223) 
x0472c

>  <smiles>  (223) 
Cc1cccc(COS(N)(=O)=O)c1

>  <HIPPO Compound ID>  (223) 
447627

>  <alias>  (223) 
BOAAHIPUWVVDOZ-UHFFFAOYSA-N-P23

>  <subsites>  (223) 


>  <placement_batch>  (223) 
CpKRS_FrAncestor_bulkdock_iter2

>  <name>  (223) 
BOAAHIPUWVVDOZ-UHFFFAOYSA-N-P23

$$$$
BAVQBJRANDPRLZ-UHFFFAOYSA-N-P38
     RDKit          3D

 15 15  0  0  0  0  0  0  0  0999 V2000
   -0.3342  -13.3716   25.9252 C   0  0  0  0  0  0  0  0  0  0  0  0
    1.1287  -13.6333   26.0951 C   0  0  0  0  0  0  0  0  0  0  0  0
    1.6088  -14.5770   27.0108 C   0  0  0  0  0  0  0  0  0  0  0  0
    2.9593  -14.9279   27.0207 C   0  0  0  0  0  0  0  0  0  0  0  0
    3.8417  -14.3289   26.1226 C   0  0  0  0  0  0  0  0  0  0  0  0
    3.3816  -13.3415   25.2440 C   0  0  0  0  0  0  0  0  0  0  0  0
    4.3178  -12.7553   24.2726 C   0  0  0  0  0  0  0  0  0  0  0  0
    5.2687  -13.3636   23.8116 O   0  0  0  0  0  0  0  0  0  0  0  0
    4.0012  -11.4679   23.9782 O   0  0  0  0  0  0  0  0  0  0  0  0
    4.8129  -10.9208   22.9333 C   0  0  0  0  0  0  0  0  0  0  0  0
    4.6266   -9.4053   22.8681 C   0  0  0  0  0  0  0  0  0  0  0  0
    5.1443   -8.7297   24.1388 C   0  0  0  0  0  0  0  0  0  0  0  0
    5.3558   -8.8596   21.6467 C   0  0  0  0  0  0  0  0  0  0  0  0
    2.0321  -13.0030   25.2354 C   0  0  0  0  0  0  0  0  0  0  0  0
    1.5557  -12.1078   24.3558 F   0  0  0  0  0  0  0  0  0  0  0  0
  1  2  1  0
  2  3  2  0
  3  4  1  0
  4  5  2  0
  5  6  1  0
  6  7  1  0
  7  8  2  0
  7  9  1  0
  9 10  1  0
 10 11  1  0
 11 12  1  0
 11 13  1  0
  6 14  2  0
 14 15  1  0
 14  2  1  0
M  END
>  <inchikey>  (224) 
BAVQBJRANDPRLZ-UHFFFAOYSA-N

>  <tags>  (224) 
fragmenstein_placed,CpKRS_FrAncestor_bulkdock_iter2

>  <ref_pdb>  (224) 
x0540b

>  <energy_score>  (224) 
-19.327478

>  <distance_score>  (224) 
0.569058

>  <HIPPO Pose ID>  (224) 
53455

>  <ref_mols>  (224) 
x0555a

>  <smiles>  (224) 
Cc1cccc(C(=O)OCC(C)C)c1F

>  <HIPPO Compound ID>  (224) 
326114

>  <alias>  (224) 
BAVQBJRANDPRLZ-UHFFFAOYSA-N-P38

>  <subsites>  (224) 


>  <placement_batch>  (224) 
CpKRS_FrAncestor_bulkdock_iter2

>  <name>  (224) 
BAVQBJRANDPRLZ-UHFFFAOYSA-N-P38

$$$$
AZQCCVRUAHDLCS-UHFFFAOYSA-N-P38
     RDKit          3D

 15 15  0  0  0  0  0  0  0  0999 V2000
   -0.4536  -13.3633   25.8843 C   0  0  0  0  0  0  0  0  0  0  0  0
    1.0149  -13.6101   26.0656 C   0  0  0  0  0  0  0  0  0  0  0  0
    1.4756  -14.5313   27.0145 C   0  0  0  0  0  0  0  0  0  0  0  0
    2.8206  -14.8854   27.0666 C   0  0  0  0  0  0  0  0  0  0  0  0
    3.7221  -14.3062   26.1777 C   0  0  0  0  0  0  0  0  0  0  0  0
    3.2952  -13.3401   25.2532 C   0  0  0  0  0  0  0  0  0  0  0  0
    4.3355  -12.7543   24.3699 C   0  0  0  0  0  0  0  0  0  0  0  0
    5.5194  -13.0286   24.4551 O   0  0  0  0  0  0  0  0  0  0  0  0
    3.7978  -11.8727   23.4839 O   0  0  0  0  0  0  0  0  0  0  0  0
    4.7146  -11.2302   22.5786 C   0  0  0  0  0  0  0  0  0  0  0  0
    4.5747   -9.7074   22.7046 C   0  0  0  0  0  0  0  0  0  0  0  0
    5.3519   -9.0173   21.5915 C   0  0  0  0  0  0  0  0  0  0  0  0
    5.0544   -9.2023   24.0650 C   0  0  0  0  0  0  0  0  0  0  0  0
    1.9376  -12.9933   25.2102 C   0  0  0  0  0  0  0  0  0  0  0  0
    1.4230  -12.0655   24.3410 O   0  0  0  0  0  0  0  0  0  0  0  0
  1  2  1  0
  2  3  2  0
  3  4  1  0
  4  5  2  0
  5  6  1  0
  6  7  1  0
  7  8  2  0
  7  9  1  0
  9 10  1  0
 10 11  1  0
 11 12  1  0
 11 13  1  0
  6 14  2  0
 14 15  1  0
 14  2  1  0
M  END
>  <inchikey>  (225) 
AZQCCVRUAHDLCS-UHFFFAOYSA-N

>  <tags>  (225) 
fragmenstein_placed,CpKRS_FrAncestor_bulkdock_iter2

>  <ref_pdb>  (225) 
x0540b

>  <energy_score>  (225) 
-45.453006

>  <distance_score>  (225) 
0.459742

>  <HIPPO Pose ID>  (225) 
53456

>  <ref_mols>  (225) 
x0555a

>  <smiles>  (225) 
Cc1cccc(C(=O)OCC(C)C)c1O

>  <HIPPO Compound ID>  (225) 
315650

>  <alias>  (225) 
AZQCCVRUAHDLCS-UHFFFAOYSA-N-P38

>  <subsites>  (225) 


>  <placement_batch>  (225) 
CpKRS_FrAncestor_bulkdock_iter2

>  <name>  (225) 
AZQCCVRUAHDLCS-UHFFFAOYSA-N-P38

$$$$
STZQAGJQPZCAED-UHFFFAOYSA-N-P54
     RDKit          3D

 12 12  0  0  0  0  0  0  0  0999 V2000
    5.6952  -39.7306   13.3974 C   0  0  0  0  0  0  0  0  0  0  0  0
    6.7108  -38.9103   12.6590 C   0  0  0  0  0  0  0  0  0  0  0  0
    8.0372  -38.8793   13.0958 C   0  0  0  0  0  0  0  0  0  0  0  0
    8.9846  -38.0870   12.4443 C   0  0  0  0  0  0  0  0  0  0  0  0
    8.6281  -37.2935   11.3455 C   0  0  0  0  0  0  0  0  0  0  0  0
    9.6807  -36.4334   10.7023 C   0  0  0  0  0  0  0  0  0  0  0  0
    7.2824  -37.2992   10.9299 C   0  0  0  0  0  0  0  0  0  0  0  0
    6.7579  -36.1861    9.6516 S   0  0  0  0  0  0  0  0  0  0  0  0
    5.0751  -36.2285    9.6833 N   0  0  0  0  0  0  0  0  0  0  0  0
    7.0933  -34.8423   10.0714 O   0  0  0  0  0  0  0  0  0  0  0  0
    7.1335  -36.7335    8.3712 O   0  0  0  0  0  0  0  0  0  0  0  0
    6.3341  -38.1070   11.5771 C   0  0  0  0  0  0  0  0  0  0  0  0
  1  2  1  0
  2  3  2  0
  3  4  1  0
  4  5  2  0
  5  6  1  0
  5  7  1  0
  7  8  1  0
  8  9  1  0
  8 10  2  0
  8 11  2  0
  7 12  2  0
 12  2  1  0
M  END
>  <inchikey>  (226) 
STZQAGJQPZCAED-UHFFFAOYSA-N

>  <tags>  (226) 
fragmenstein_placed,CpKRS_FrAncestor_bulkdock_iter2

>  <ref_pdb>  (226) 
x0540b

>  <energy_score>  (226) 
-28.479772

>  <distance_score>  (226) 
0.21527

>  <HIPPO Pose ID>  (226) 
53459

>  <ref_mols>  (226) 
x0639c

>  <smiles>  (226) 
Cc1ccc(C)c(S(N)(=O)=O)c1

>  <HIPPO Compound ID>  (226) 
447628

>  <alias>  (226) 
STZQAGJQPZCAED-UHFFFAOYSA-N-P54

>  <subsites>  (226) 


>  <placement_batch>  (226) 
CpKRS_FrAncestor_bulkdock_iter2

>  <name>  (226) 
STZQAGJQPZCAED-UHFFFAOYSA-N-P54

$$$$
IYPWJVBEXXTOSG-UHFFFAOYSA-N-P54
     RDKit          3D

 15 15  0  0  0  0  0  0  0  0999 V2000
    5.9226  -39.7931   13.6317 C   0  0  0  0  0  0  0  0  0  0  0  0
    6.8708  -38.9655   12.8166 C   0  0  0  0  0  0  0  0  0  0  0  0
    8.2296  -38.9336   13.1331 C   0  0  0  0  0  0  0  0  0  0  0  0
    9.1117  -38.1259   12.4112 C   0  0  0  0  0  0  0  0  0  0  0  0
    8.6613  -37.3200   11.3543 C   0  0  0  0  0  0  0  0  0  0  0  0
    9.6591  -36.4347   10.6625 C   0  0  0  0  0  0  0  0  0  0  0  0
    7.2864  -37.3388   11.0514 C   0  0  0  0  0  0  0  0  0  0  0  0
    6.5795  -36.2369    9.8385 S   0  0  0  0  0  0  0  0  0  0  0  0
    5.1430  -36.4034    9.8363 O   0  0  0  0  0  0  0  0  0  0  0  0
    7.1603  -34.9302   10.0771 O   0  0  0  0  0  0  0  0  0  0  0  0
    7.1931  -36.7822    8.3865 N   0  0  0  0  0  0  0  0  0  0  0  0
    6.6415  -37.8967    7.6042 C   0  0  0  0  0  0  0  0  0  0  0  0
    5.4291  -37.4351    6.8042 C   0  0  0  0  0  0  0  0  0  0  0  0
    6.3484  -39.1441    8.4209 C   0  0  0  0  0  0  0  0  0  0  0  0
    6.4010  -38.1507   11.7832 C   0  0  0  0  0  0  0  0  0  0  0  0
  1  2  1  0
  2  3  2  0
  3  4  1  0
  4  5  2  0
  5  6  1  0
  5  7  1  0
  7  8  1  0
  8  9  2  0
  8 10  2  0
  8 11  1  0
 11 12  1  0
 12 13  1  0
 12 14  1  0
  7 15  2  0
 15  2  1  0
M  END
>  <inchikey>  (227) 
IYPWJVBEXXTOSG-UHFFFAOYSA-N

>  <tags>  (227) 
fragmenstein_placed,CpKRS_FrAncestor_bulkdock_iter2

>  <ref_pdb>  (227) 
x0540b

>  <energy_score>  (227) 
-33.033136

>  <distance_score>  (227) 
0.234042

>  <HIPPO Pose ID>  (227) 
53462

>  <ref_mols>  (227) 
x0639c

>  <smiles>  (227) 
Cc1ccc(C)c(S(=O)(=O)NC(C)C)c1

>  <HIPPO Compound ID>  (227) 
312074

>  <alias>  (227) 
IYPWJVBEXXTOSG-UHFFFAOYSA-N-P54

>  <subsites>  (227) 


>  <placement_batch>  (227) 
CpKRS_FrAncestor_bulkdock_iter2

>  <name>  (227) 
IYPWJVBEXXTOSG-UHFFFAOYSA-N-P54

$$$$
KCPTZIWOFKMELV-UHFFFAOYSA-N-P38
     RDKit          3D

 16 16  0  0  0  0  0  0  0  0999 V2000
    4.8946  -15.4310   26.7781 C   0  0  0  0  0  0  0  0  0  0  0  0
    3.6089  -14.6705   26.6026 C   0  0  0  0  0  0  0  0  0  0  0  0
    2.5717  -15.0502   27.4851 C   0  0  0  0  0  0  0  0  0  0  0  0
    1.3240  -14.4452   27.4455 C   0  0  0  0  0  0  0  0  0  0  0  0
    1.0705  -13.4812   26.4882 C   0  0  0  0  0  0  0  0  0  0  0  0
    2.0785  -13.1040   25.6011 C   0  0  0  0  0  0  0  0  0  0  0  0
    1.7434  -12.1367   24.7312 F   0  0  0  0  0  0  0  0  0  0  0  0
    3.3702  -13.6670   25.6255 C   0  0  0  0  0  0  0  0  0  0  0  0
    4.4807  -13.1639   24.6869 C   0  0  0  0  0  0  0  0  0  0  0  0
    5.5464  -13.6046   24.8415 O   0  0  0  0  0  0  0  0  0  0  0  0
    3.9883  -12.0551   23.7397 N   0  0  0  0  0  0  0  0  0  0  0  0
    4.6859  -11.3211   22.7166 C   0  0  0  0  0  0  0  0  0  0  0  0
    4.6601   -9.7889   22.9357 C   0  0  0  0  0  0  0  0  0  0  0  0
    5.1553   -9.1083   21.6493 C   0  0  0  0  0  0  0  0  0  0  0  0
    5.5814   -9.3563   24.0842 C   0  0  0  0  0  0  0  0  0  0  0  0
    3.2396   -9.3136   23.2749 C   0  0  0  0  0  0  0  0  0  0  0  0
  1  2  1  0
  2  3  2  0
  3  4  1  0
  4  5  2  0
  5  6  1  0
  6  7  1  0
  6  8  2  0
  8  9  1  0
  9 10  2  0
  9 11  1  0
 11 12  1  0
 12 13  1  0
 13 14  1  0
 13 15  1  0
 13 16  1  0
  8  2  1  0
M  END
>  <inchikey>  (228) 
KCPTZIWOFKMELV-UHFFFAOYSA-N

>  <tags>  (228) 
fragmenstein_placed,CpKRS_FrAncestor_bulkdock_iter2

>  <ref_pdb>  (228) 
x0540b

>  <energy_score>  (228) 
-14.762432

>  <distance_score>  (228) 
0.420503

>  <HIPPO Pose ID>  (228) 
53463

>  <ref_mols>  (228) 
x0555a

>  <smiles>  (228) 
Cc1cccc(F)c1C(=O)NCC(C)(C)C

>  <HIPPO Compound ID>  (228) 
136851

>  <alias>  (228) 
KCPTZIWOFKMELV-UHFFFAOYSA-N-P38

>  <subsites>  (228) 


>  <placement_batch>  (228) 
CpKRS_FrAncestor_bulkdock_iter2

>  <name>  (228) 
KCPTZIWOFKMELV-UHFFFAOYSA-N-P38

$$$$
UXWRQRQYDKNOBA-UHFFFAOYSA-N-P38
     RDKit          3D

 15 15  0  0  0  0  0  0  0  0999 V2000
    4.8105  -15.3474   26.7004 C   0  0  0  0  0  0  0  0  0  0  0  0
    3.5420  -14.5613   26.5037 C   0  0  0  0  0  0  0  0  0  0  0  0
    2.4822  -14.9306   27.3625 C   0  0  0  0  0  0  0  0  0  0  0  0
    1.2481  -14.3004   27.3045 C   0  0  0  0  0  0  0  0  0  0  0  0
    1.0361  -13.3098   26.3630 C   0  0  0  0  0  0  0  0  0  0  0  0
    2.0665  -12.9413   25.4983 C   0  0  0  0  0  0  0  0  0  0  0  0
    1.7768  -11.9493   24.6402 F   0  0  0  0  0  0  0  0  0  0  0  0
    3.3367  -13.5465   25.5275 C   0  0  0  0  0  0  0  0  0  0  0  0
    4.4555  -13.0783   24.5880 C   0  0  0  0  0  0  0  0  0  0  0  0
    5.5171  -13.5155   24.7805 O   0  0  0  0  0  0  0  0  0  0  0  0
    3.9674  -12.0713   23.5269 N   0  0  0  0  0  0  0  0  0  0  0  0
    4.7020  -11.3210   22.5426 C   0  0  0  0  0  0  0  0  0  0  0  0
    4.5657   -9.8024   22.7198 C   0  0  0  0  0  0  0  0  0  0  0  0
    5.2496   -9.0863   21.5587 C   0  0  0  0  0  0  0  0  0  0  0  0
    5.1594   -9.3091   24.0390 C   0  0  0  0  0  0  0  0  0  0  0  0
  1  2  1  0
  2  3  2  0
  3  4  1  0
  4  5  2  0
  5  6  1  0
  6  7  1  0
  6  8  2  0
  8  9  1  0
  9 10  2  0
  9 11  1  0
 11 12  1  0
 12 13  1  0
 13 14  1  0
 13 15  1  0
  8  2  1  0
M  END
>  <inchikey>  (229) 
UXWRQRQYDKNOBA-UHFFFAOYSA-N

>  <tags>  (229) 
fragmenstein_placed,CpKRS_FrAncestor_bulkdock_iter2

>  <ref_pdb>  (229) 
x0540b

>  <energy_score>  (229) 
-14.853852

>  <distance_score>  (229) 
0.45016

>  <HIPPO Pose ID>  (229) 
53464

>  <ref_mols>  (229) 
x0555a

>  <smiles>  (229) 
Cc1cccc(F)c1C(=O)NCC(C)C

>  <HIPPO Compound ID>  (229) 
313686

>  <alias>  (229) 
UXWRQRQYDKNOBA-UHFFFAOYSA-N-P38

>  <subsites>  (229) 


>  <placement_batch>  (229) 
CpKRS_FrAncestor_bulkdock_iter2

>  <name>  (229) 
UXWRQRQYDKNOBA-UHFFFAOYSA-N-P38

$$$$
PISUZMZKCYXSBX-UHFFFAOYSA-N-P38
     RDKit          3D

 16 16  0  0  0  0  0  0  0  0999 V2000
    4.9027  -15.3844   26.7228 C   0  0  0  0  0  0  0  0  0  0  0  0
    3.6182  -14.6212   26.5435 C   0  0  0  0  0  0  0  0  0  0  0  0
    2.5749  -15.0152   27.4132 C   0  0  0  0  0  0  0  0  0  0  0  0
    1.3273  -14.4097   27.3761 C   0  0  0  0  0  0  0  0  0  0  0  0
    1.0805  -13.4274   26.4358 C   0  0  0  0  0  0  0  0  0  0  0  0
    2.0938  -13.0374   25.5606 C   0  0  0  0  0  0  0  0  0  0  0  0
    1.7717  -12.0494   24.7100 F   0  0  0  0  0  0  0  0  0  0  0  0
    3.3835  -13.6043   25.5782 C   0  0  0  0  0  0  0  0  0  0  0  0
    4.4920  -13.0874   24.6451 C   0  0  0  0  0  0  0  0  0  0  0  0
    5.5563  -13.5272   24.8009 O   0  0  0  0  0  0  0  0  0  0  0  0
    4.0041  -11.9793   23.7094 N   0  0  0  0  0  0  0  0  0  0  0  0
    4.6794  -11.2628   22.7295 O   0  0  0  0  0  0  0  0  0  0  0  0
    4.6243   -9.8393   22.9537 C   0  0  0  0  0  0  0  0  0  0  0  0
    5.1214   -9.2025   21.6498 C   0  0  0  0  0  0  0  0  0  0  0  0
    5.5635   -9.4126   24.0827 C   0  0  0  0  0  0  0  0  0  0  0  0
    3.2017   -9.3579   23.2634 C   0  0  0  0  0  0  0  0  0  0  0  0
  1  2  1  0
  2  3  2  0
  3  4  1  0
  4  5  2  0
  5  6  1  0
  6  7  1  0
  6  8  2  0
  8  9  1  0
  9 10  2  0
  9 11  1  0
 11 12  1  0
 12 13  1  0
 13 14  1  0
 13 15  1  0
 13 16  1  0
  8  2  1  0
M  END
>  <inchikey>  (230) 
PISUZMZKCYXSBX-UHFFFAOYSA-N

>  <tags>  (230) 
fragmenstein_placed,CpKRS_FrAncestor_bulkdock_iter2

>  <ref_pdb>  (230) 
x0540b

>  <energy_score>  (230) 
-3.743843

>  <distance_score>  (230) 
0.41548

>  <HIPPO Pose ID>  (230) 
53465

>  <ref_mols>  (230) 
x0555a

>  <smiles>  (230) 
Cc1cccc(F)c1C(=O)NOC(C)(C)C

>  <HIPPO Compound ID>  (230) 
137294

>  <alias>  (230) 
PISUZMZKCYXSBX-UHFFFAOYSA-N-P38

>  <subsites>  (230) 


>  <placement_batch>  (230) 
CpKRS_FrAncestor_bulkdock_iter2

>  <name>  (230) 
PISUZMZKCYXSBX-UHFFFAOYSA-N-P38

$$$$
TWAXAOYCYFSZOH-UHFFFAOYSA-N-P54
     RDKit          3D

 15 15  0  0  0  0  0  0  0  0999 V2000
    4.9243  -38.3435   11.6115 C   0  0  0  0  0  0  0  0  0  0  0  0
    6.4061  -38.1981   11.8081 C   0  0  0  0  0  0  0  0  0  0  0  0
    7.0058  -38.9550   12.8318 C   0  0  0  0  0  0  0  0  0  0  0  0
    8.3718  -38.8581   13.1002 C   0  0  0  0  0  0  0  0  0  0  0  0
    9.1695  -38.0080   12.3441 C   0  0  0  0  0  0  0  0  0  0  0  0
    8.5959  -37.2471   11.3321 C   0  0  0  0  0  0  0  0  0  0  0  0
    9.3982  -36.4268   10.6353 F   0  0  0  0  0  0  0  0  0  0  0  0
    7.2261  -37.3290   11.0590 C   0  0  0  0  0  0  0  0  0  0  0  0
    6.6120  -36.1931    9.8430 S   0  0  0  0  0  0  0  0  0  0  0  0
    5.1759  -36.3157    9.7303 O   0  0  0  0  0  0  0  0  0  0  0  0
    7.2040  -34.9008   10.1237 O   0  0  0  0  0  0  0  0  0  0  0  0
    7.2798  -36.7596    8.4282 N   0  0  0  0  0  0  0  0  0  0  0  0
    6.7918  -37.9804    7.7917 C   0  0  0  0  0  0  0  0  0  0  0  0
    7.9927  -38.8310    7.3950 C   0  0  0  0  0  0  0  0  0  0  0  0
    5.9586  -37.6048    6.5730 C   0  0  0  0  0  0  0  0  0  0  0  0
  1  2  1  0
  2  3  2  0
  3  4  1  0
  4  5  2  0
  5  6  1  0
  6  7  1  0
  6  8  2  0
  8  9  1  0
  9 10  2  0
  9 11  2  0
  9 12  1  0
 12 13  1  0
 13 14  1  0
 13 15  1  0
  8  2  1  0
M  END
>  <inchikey>  (231) 
TWAXAOYCYFSZOH-UHFFFAOYSA-N

>  <tags>  (231) 
fragmenstein_placed,CpKRS_FrAncestor_bulkdock_iter2

>  <ref_pdb>  (231) 
x0540b

>  <energy_score>  (231) 
-41.522017

>  <distance_score>  (231) 
0.231351

>  <HIPPO Pose ID>  (231) 
53468

>  <ref_mols>  (231) 
x0639c

>  <smiles>  (231) 
Cc1cccc(F)c1S(=O)(=O)NC(C)C

>  <HIPPO Compound ID>  (231) 
312132

>  <alias>  (231) 
TWAXAOYCYFSZOH-UHFFFAOYSA-N-P54

>  <subsites>  (231) 


>  <placement_batch>  (231) 
CpKRS_FrAncestor_bulkdock_iter2

>  <name>  (231) 
TWAXAOYCYFSZOH-UHFFFAOYSA-N-P54

$$$$
UQZSGRRZENNPQI-ABLWVSNPSA-N-P56
     RDKit          3D

 19 20  0  0  0  0  0  0  0  0999 V2000
    5.5607   -7.0733   24.7770 C   0  0  0  0  0  0  0  0  0  0  0  0
    5.1580   -8.4326   24.3023 C   0  0  0  0  0  0  0  0  0  0  0  0
    4.2080   -9.2046   24.9739 C   0  0  0  0  0  0  0  0  0  0  0  0
    3.9665  -10.5362   24.5982 C   0  0  0  0  0  0  0  0  0  0  0  0
    4.6648  -11.1079   23.5362 C   0  0  0  0  0  0  0  0  0  0  0  0
    4.4440  -12.5131   23.0182 C   0  0  2  0  0  0  0  0  0  0  0  0
    3.3786  -12.3697   21.9760 C   0  0  0  0  0  0  0  0  0  0  0  0
    4.0201  -13.5597   23.8980 N   0  0  0  0  0  0  0  0  0  0  0  0
    4.4981  -13.9519   25.1799 C   0  0  0  0  0  0  0  0  0  0  0  0
    5.3058  -13.4670   25.8681 O   0  0  0  0  0  0  0  0  0  0  0  0
    3.6337  -15.1010   25.4092 N   0  0  0  0  0  0  0  0  0  0  0  0
    2.3071  -14.6474   26.0356 C   0  0  0  0  0  0  0  0  0  0  0  0
    2.2133  -14.0236   27.4213 C   0  0  0  0  0  0  0  0  0  0  0  0
    2.5689  -14.9588   28.4252 O   0  0  0  0  0  0  0  0  0  0  0  0
    3.7765  -15.5661   27.9925 C   0  0  0  0  0  0  0  0  0  0  0  0
    3.5959  -16.0819   26.5526 C   0  0  1  0  0  0  0  0  0  0  0  0
    2.6731  -17.2792   26.5069 C   0  0  0  0  0  0  0  0  0  0  0  0
    5.5088  -10.2712   22.7882 C   0  0  0  0  0  0  0  0  0  0  0  0
    5.7653   -8.9609   23.1708 C   0  0  0  0  0  0  0  0  0  0  0  0
  1  2  1  0
  2  3  2  0
  3  4  1  0
  4  5  2  0
  5  6  1  0
  6  7  1  6
  6  8  1  0
  8  9  1  0
  9 10  2  0
  9 11  1  0
 11 12  1  0
 12 13  1  0
 13 14  1  0
 14 15  1  0
 15 16  1  0
 16 17  1  1
  5 18  1  0
 18 19  2  0
 19  2  1  0
 16 11  1  0
M  END
>  <inchikey>  (232) 
UQZSGRRZENNPQI-UHFFFAOYSA-N

>  <tags>  (232) 
fragmenstein_placed,CpKRS_FrAncestor_bulkdock_iter2

>  <ref_pdb>  (232) 
x0540b

>  <energy_score>  (232) 
-182.483649

>  <distance_score>  (232) 
0.861749

>  <HIPPO Pose ID>  (232) 
53537

>  <ref_mols>  (232) 
x0654a

>  <smiles>  (232) 
Cc1ccc([C@H](C)NC(=O)N2CCOCC2C)cc1

>  <HIPPO Compound ID>  (232) 
447631

>  <alias>  (232) 
UQZSGRRZENNPQI-ABLWVSNPSA-N-P56

>  <subsites>  (232) 


>  <placement_batch>  (232) 
CpKRS_FrAncestor_bulkdock_iter2

>  <name>  (232) 
UQZSGRRZENNPQI-ABLWVSNPSA-N-P56

$$$$
KEYINYBUCXZGTM-UHFFFAOYSA-N-P60
     RDKit          3D

 16 17  0  0  0  0  0  0  0  0999 V2000
   -0.1119  -26.1004   22.3822 C   0  0  0  0  0  0  0  0  0  0  0  0
   -1.0481  -25.9748   23.5538 C   0  0  0  0  0  0  0  0  0  0  0  0
   -1.1463  -24.7409   24.2155 C   0  0  0  0  0  0  0  0  0  0  0  0
   -1.9653  -24.5845   25.3330 C   0  0  0  0  0  0  0  0  0  0  0  0
   -2.7163  -25.6577   25.7866 C   0  0  0  0  0  0  0  0  0  0  0  0
   -3.7197  -25.4774   27.1710 Cl  0  0  0  0  0  0  0  0  0  0  0  0
   -2.6699  -26.8791   25.1195 C   0  0  0  0  0  0  0  0  0  0  0  0
   -1.8368  -27.0569   23.9973 C   0  0  0  0  0  0  0  0  0  0  0  0
   -1.8259  -28.4064   23.3025 C   0  0  0  0  0  0  0  0  0  0  0  0
   -0.6649  -29.2479   23.6384 N   0  0  0  0  0  0  0  0  0  0  0  0
   -0.6716  -29.6971   25.0416 C   0  0  0  0  0  0  0  0  0  0  0  0
   -1.5899  -30.9009   25.3040 C   0  0  0  0  0  0  0  0  0  0  0  0
   -1.3803  -32.0102   24.4207 O   0  0  0  0  0  0  0  0  0  0  0  0
   -0.3604  -31.7607   23.4466 C   0  0  0  0  0  0  0  0  0  0  0  0
   -0.5977  -30.4175   22.7199 C   0  0  2  0  0  0  0  0  0  0  0  0
    0.5073  -30.1682   21.6942 C   0  0  0  0  0  0  0  0  0  0  0  0
  1  2  1  0
  2  3  2  0
  3  4  1  0
  4  5  2  0
  5  6  1  0
  5  7  1  0
  7  8  2  0
  8  9  1  0
  9 10  1  0
 10 11  1  0
 11 12  1  0
 12 13  1  0
 13 14  1  0
 14 15  1  0
 15 16  1  6
  8  2  1  0
 15 10  1  0
M  END
>  <inchikey>  (233) 
KEYINYBUCXZGTM-UHFFFAOYSA-N

>  <tags>  (233) 
fragmenstein_placed,CpKRS_FrAncestor_bulkdock_iter2

>  <ref_pdb>  (233) 
x0540b

>  <energy_score>  (233) 
-35.126846

>  <distance_score>  (233) 
0.343695

>  <HIPPO Pose ID>  (233) 
53595

>  <ref_mols>  (233) 
x0675b

>  <smiles>  (233) 
Cc1ccc(Cl)cc1CN1CCOCC1C

>  <HIPPO Compound ID>  (233) 
139940

>  <alias>  (233) 
KEYINYBUCXZGTM-UHFFFAOYSA-N-P60

>  <subsites>  (233) 


>  <placement_batch>  (233) 
CpKRS_FrAncestor_bulkdock_iter2

>  <name>  (233) 
KEYINYBUCXZGTM-UHFFFAOYSA-N-P60

$$$$
MQOCQVFJEANWEF-UHFFFAOYSA-N-P60
     RDKit          3D

 15 16  0  0  0  0  0  0  0  0999 V2000
   -0.1305  -26.1165   22.4043 C   0  0  0  0  0  0  0  0  0  0  0  0
   -1.0607  -25.9778   23.5790 C   0  0  0  0  0  0  0  0  0  0  0  0
   -1.1488  -24.7393   24.2334 C   0  0  0  0  0  0  0  0  0  0  0  0
   -1.9700  -24.5682   25.3473 C   0  0  0  0  0  0  0  0  0  0  0  0
   -2.7348  -25.6304   25.8031 C   0  0  0  0  0  0  0  0  0  0  0  0
   -3.7438  -25.4347   27.1807 Cl  0  0  0  0  0  0  0  0  0  0  0  0
   -2.7013  -26.8539   25.1405 C   0  0  0  0  0  0  0  0  0  0  0  0
   -1.8666  -27.0465   24.0223 C   0  0  0  0  0  0  0  0  0  0  0  0
   -1.8824  -28.3939   23.3263 C   0  0  0  0  0  0  0  0  0  0  0  0
   -0.7586  -29.2744   23.6798 N   0  0  0  0  0  0  0  0  0  0  0  0
   -0.7963  -29.7416   25.0784 C   0  0  0  0  0  0  0  0  0  0  0  0
   -1.6414  -31.0086   25.2736 C   0  0  0  0  0  0  0  0  0  0  0  0
   -1.2159  -32.1194   24.4718 O   0  0  0  0  0  0  0  0  0  0  0  0
   -0.3057  -31.7439   23.4291 C   0  0  0  0  0  0  0  0  0  0  0  0
   -0.7282  -30.4319   22.7527 C   0  0  0  0  0  0  0  0  0  0  0  0
  1  2  1  0
  2  3  2  0
  3  4  1  0
  4  5  2  0
  5  6  1  0
  5  7  1  0
  7  8  2  0
  8  9  1  0
  9 10  1  0
 10 11  1  0
 11 12  1  0
 12 13  1  0
 13 14  1  0
 14 15  1  0
  8  2  1  0
 15 10  1  0
M  END
>  <inchikey>  (234) 
MQOCQVFJEANWEF-UHFFFAOYSA-N

>  <tags>  (234) 
fragmenstein_placed,CpKRS_FrAncestor_bulkdock_iter2

>  <ref_pdb>  (234) 
x0540b

>  <energy_score>  (234) 
-16.717801

>  <distance_score>  (234) 
0.382004

>  <HIPPO Pose ID>  (234) 
53597

>  <ref_mols>  (234) 
x0675b

>  <smiles>  (234) 
Cc1ccc(Cl)cc1CN1CCOCC1

>  <HIPPO Compound ID>  (234) 
324490

>  <alias>  (234) 
MQOCQVFJEANWEF-UHFFFAOYSA-N-P60

>  <subsites>  (234) 


>  <placement_batch>  (234) 
CpKRS_FrAncestor_bulkdock_iter2

>  <name>  (234) 
MQOCQVFJEANWEF-UHFFFAOYSA-N-P60

$$$$
BLPOKHBTYYLDPF-UHFFFAOYSA-N-P38
     RDKit          3D

 17 17  0  0  0  0  0  0  0  0999 V2000
    1.2163  -12.1791   24.4198 C   0  0  0  0  0  0  0  0  0  0  0  0
    1.8565  -13.0522   25.4636 C   0  0  0  0  0  0  0  0  0  0  0  0
    0.9920  -13.5336   26.4684 C   0  0  0  0  0  0  0  0  0  0  0  0
    1.4332  -14.4378   27.4316 C   0  0  0  0  0  0  0  0  0  0  0  0
    2.7403  -14.8974   27.3937 C   0  0  0  0  0  0  0  0  0  0  0  0
    3.2607  -16.0498   28.5601 Cl  0  0  0  0  0  0  0  0  0  0  0  0
    3.6243  -14.4059   26.4400 C   0  0  0  0  0  0  0  0  0  0  0  0
    3.2165  -13.4426   25.4902 C   0  0  0  0  0  0  0  0  0  0  0  0
    4.3147  -12.9886   24.5442 C   0  0  0  0  0  0  0  0  0  0  0  0
    5.1657  -13.7501   24.3426 O   0  0  0  0  0  0  0  0  0  0  0  0
    4.0756  -11.5955   23.9657 N   0  0  0  0  0  0  0  0  0  0  0  0
    4.7841  -10.8735   22.9384 C   0  0  0  0  0  0  0  0  0  0  0  0
    4.6512   -9.3481   22.9695 C   0  0  0  0  0  0  0  0  0  0  0  0
    5.3179   -8.7632   24.2197 C   0  0  0  0  0  0  0  0  0  0  0  0
    5.3380   -8.7846   21.7202 C   0  0  0  0  0  0  0  0  0  0  0  0
    3.2183   -8.9909   22.9558 C   0  0  0  0  0  0  0  0  0  0  0  0
    2.0770   -8.7726   22.9667 N   0  0  0  0  0  0  0  0  0  0  0  0
  1  2  1  0
  2  3  2  0
  3  4  1  0
  4  5  2  0
  5  6  1  0
  5  7  1  0
  7  8  2  0
  8  9  1  0
  9 10  2  0
  9 11  1  0
 11 12  1  0
 12 13  1  0
 13 14  1  0
 13 15  1  0
 13 16  1  0
 16 17  3  0
  8  2  1  0
M  END
>  <inchikey>  (235) 
BLPOKHBTYYLDPF-UHFFFAOYSA-N

>  <tags>  (235) 
fragmenstein_placed,CpKRS_FrAncestor_bulkdock_iter2

>  <ref_pdb>  (235) 
x0540b

>  <energy_score>  (235) 
-12.865154

>  <distance_score>  (235) 
0.350233

>  <HIPPO Pose ID>  (235) 
53602

>  <ref_mols>  (235) 
x0555a

>  <smiles>  (235) 
Cc1ccc(Cl)cc1C(=O)NCC(C)(C)C#N

>  <HIPPO Compound ID>  (235) 
447633

>  <alias>  (235) 
BLPOKHBTYYLDPF-UHFFFAOYSA-N-P38

>  <subsites>  (235) 


>  <placement_batch>  (235) 
CpKRS_FrAncestor_bulkdock_iter2

>  <name>  (235) 
BLPOKHBTYYLDPF-UHFFFAOYSA-N-P38

$$$$
HMZPEGIRMPPUIF-UHFFFAOYSA-N-P30
     RDKit          3D

 18 19  0  0  0  0  0  0  0  0999 V2000
    4.6780  -12.0038   22.0875 C   0  0  0  0  0  0  0  0  0  0  0  0
    4.8854  -10.6849   22.7732 C   0  0  0  0  0  0  0  0  0  0  0  0
    5.3463   -9.6171   21.9885 C   0  0  0  0  0  0  0  0  0  0  0  0
    5.5887   -8.3691   22.5491 C   0  0  0  0  0  0  0  0  0  0  0  0
    5.3846   -8.1794   23.9057 C   0  0  0  0  0  0  0  0  0  0  0  0
    5.8678   -6.7177   24.6556 Cl  0  0  0  0  0  0  0  0  0  0  0  0
    4.8306   -9.1869   24.6798 C   0  0  0  0  0  0  0  0  0  0  0  0
    4.6255  -10.4551   24.1318 C   0  0  0  0  0  0  0  0  0  0  0  0
    4.1543  -11.4254   25.0073 N   0  0  0  0  0  0  0  0  0  0  0  0
    4.3861  -12.9510   25.0317 C   0  0  0  0  0  0  0  0  0  0  0  0
    5.0686  -13.6206   24.3687 O   0  0  0  0  0  0  0  0  0  0  0  0
    3.4991  -13.5967   26.0347 C   0  0  0  0  0  0  0  0  0  0  0  0
    2.1626  -13.1942   26.0944 C   0  0  0  0  0  0  0  0  0  0  0  0
    1.3453  -13.7913   27.0298 C   0  0  0  0  0  0  0  0  0  0  0  0
    1.7486  -14.7460   27.8894 N   0  0  0  0  0  0  0  0  0  0  0  0
    3.0368  -15.1496   27.7704 C   0  0  0  0  0  0  0  0  0  0  0  0
    3.9425  -14.6196   26.8659 C   0  0  0  0  0  0  0  0  0  0  0  0
    5.6971  -15.2925   26.8709 Br  0  0  0  0  0  0  0  0  0  0  0  0
  1  2  1  0
  2  3  2  0
  3  4  1  0
  4  5  2  0
  5  6  1  0
  5  7  1  0
  7  8  2  0
  8  9  1  0
  9 10  1  0
 10 11  2  0
 10 12  1  0
 12 13  2  0
 13 14  1  0
 14 15  2  0
 15 16  1  0
 16 17  2  0
 17 18  1  0
  8  2  1  0
 17 12  1  0
M  END
>  <inchikey>  (236) 
HMZPEGIRMPPUIF-UHFFFAOYSA-N

>  <tags>  (236) 
fragmenstein_placed,CpKRS_FrAncestor_bulkdock_iter2

>  <ref_pdb>  (236) 
x0540b

>  <energy_score>  (236) 
-11.813102

>  <distance_score>  (236) 
0.316734

>  <HIPPO Pose ID>  (236) 
53606

>  <ref_mols>  (236) 
x0485a

>  <smiles>  (236) 
Cc1ccc(Cl)cc1NC(=O)c1ccncc1Br

>  <HIPPO Compound ID>  (236) 
157236

>  <alias>  (236) 
HMZPEGIRMPPUIF-UHFFFAOYSA-N-P30

>  <subsites>  (236) 


>  <placement_batch>  (236) 
CpKRS_FrAncestor_bulkdock_iter2

>  <name>  (236) 
HMZPEGIRMPPUIF-UHFFFAOYSA-N-P30

$$$$
MDSHJWNXSRFAFG-UHFFFAOYSA-N-P30
     RDKit          3D

 18 19  0  0  0  0  0  0  0  0999 V2000
    4.6908  -12.0733   22.1130 C   0  0  0  0  0  0  0  0  0  0  0  0
    4.8988  -10.7491   22.7876 C   0  0  0  0  0  0  0  0  0  0  0  0
    5.3459   -9.6825   21.9920 C   0  0  0  0  0  0  0  0  0  0  0  0
    5.5826   -8.4284   22.5419 C   0  0  0  0  0  0  0  0  0  0  0  0
    5.3789   -8.2303   23.8973 C   0  0  0  0  0  0  0  0  0  0  0  0
    5.8506   -6.7574   24.6340 Cl  0  0  0  0  0  0  0  0  0  0  0  0
    4.8389   -9.2388   24.6819 C   0  0  0  0  0  0  0  0  0  0  0  0
    4.6495  -10.5157   24.1469 C   0  0  0  0  0  0  0  0  0  0  0  0
    4.2083  -11.4908   25.0348 N   0  0  0  0  0  0  0  0  0  0  0  0
    4.4861  -13.0109   25.0756 C   0  0  0  0  0  0  0  0  0  0  0  0
    5.1879  -13.6674   24.4183 O   0  0  0  0  0  0  0  0  0  0  0  0
    3.6261  -13.6782   26.0890 C   0  0  0  0  0  0  0  0  0  0  0  0
    2.2833  -13.2975   26.1832 C   0  0  0  0  0  0  0  0  0  0  0  0
    1.4937  -13.9189   27.1284 C   0  0  0  0  0  0  0  0  0  0  0  0
    1.9275  -14.8848   27.9602 N   0  0  0  0  0  0  0  0  0  0  0  0
    3.2212  -15.2649   27.8072 C   0  0  0  0  0  0  0  0  0  0  0  0
    4.1053  -14.7054   26.8969 C   0  0  0  0  0  0  0  0  0  0  0  0
    5.7231  -15.2776   26.8793 Cl  0  0  0  0  0  0  0  0  0  0  0  0
  1  2  1  0
  2  3  2  0
  3  4  1  0
  4  5  2  0
  5  6  1  0
  5  7  1  0
  7  8  2  0
  8  9  1  0
  9 10  1  0
 10 11  2  0
 10 12  1  0
 12 13  2  0
 13 14  1  0
 14 15  2  0
 15 16  1  0
 16 17  2  0
 17 18  1  0
  8  2  1  0
 17 12  1  0
M  END
>  <inchikey>  (237) 
MDSHJWNXSRFAFG-UHFFFAOYSA-N

>  <tags>  (237) 
fragmenstein_placed,CpKRS_FrAncestor_bulkdock_iter2

>  <ref_pdb>  (237) 
x0540b

>  <energy_score>  (237) 
-7.601384

>  <distance_score>  (237) 
0.235643

>  <HIPPO Pose ID>  (237) 
53609

>  <ref_mols>  (237) 
x0485a

>  <smiles>  (237) 
Cc1ccc(Cl)cc1NC(=O)c1ccncc1Cl

>  <HIPPO Compound ID>  (237) 
157775

>  <alias>  (237) 
MDSHJWNXSRFAFG-UHFFFAOYSA-N-P30

>  <subsites>  (237) 


>  <placement_batch>  (237) 
CpKRS_FrAncestor_bulkdock_iter2

>  <name>  (237) 
MDSHJWNXSRFAFG-UHFFFAOYSA-N-P30

$$$$
PECXHWQWXIKBGH-UHFFFAOYSA-N-P30
     RDKit          3D

 18 19  0  0  0  0  0  0  0  0999 V2000
    4.6941  -12.1844   22.1567 C   0  0  0  0  0  0  0  0  0  0  0  0
    4.8773  -10.8504   22.8186 C   0  0  0  0  0  0  0  0  0  0  0  0
    5.3830   -9.7967   22.0442 C   0  0  0  0  0  0  0  0  0  0  0  0
    5.5971   -8.5429   22.6022 C   0  0  0  0  0  0  0  0  0  0  0  0
    5.3056   -8.3326   23.9410 C   0  0  0  0  0  0  0  0  0  0  0  0
    5.7631   -6.8561   24.6841 Cl  0  0  0  0  0  0  0  0  0  0  0  0
    4.7007   -9.3290   24.6979 C   0  0  0  0  0  0  0  0  0  0  0  0
    4.5408  -10.6064   24.1571 C   0  0  0  0  0  0  0  0  0  0  0  0
    4.0479  -11.6049   24.9902 N   0  0  0  0  0  0  0  0  0  0  0  0
    4.5176  -13.0659   25.1954 C   0  0  0  0  0  0  0  0  0  0  0  0
    5.3416  -13.6805   24.6416 O   0  0  0  0  0  0  0  0  0  0  0  0
    3.7364  -13.7829   26.2426 C   0  0  0  0  0  0  0  0  0  0  0  0
    4.3070  -14.9142   26.8349 C   0  0  0  0  0  0  0  0  0  0  0  0
    3.5802  -15.5989   27.7932 C   0  0  0  0  0  0  0  0  0  0  0  0
    2.3396  -15.2454   28.1954 N   0  0  0  0  0  0  0  0  0  0  0  0
    1.8098  -14.1647   27.5832 C   0  0  0  0  0  0  0  0  0  0  0  0
    2.4557  -13.4127   26.6207 C   0  0  0  0  0  0  0  0  0  0  0  0
    1.8283  -12.3501   26.0976 F   0  0  0  0  0  0  0  0  0  0  0  0
  1  2  1  0
  2  3  2  0
  3  4  1  0
  4  5  2  0
  5  6  1  0
  5  7  1  0
  7  8  2  0
  8  9  1  0
  9 10  1  0
 10 11  2  0
 10 12  1  0
 12 13  2  0
 13 14  1  0
 14 15  2  0
 15 16  1  0
 16 17  2  0
 17 18  1  0
  8  2  1  0
 17 12  1  0
M  END
>  <inchikey>  (238) 
PECXHWQWXIKBGH-UHFFFAOYSA-N

>  <tags>  (238) 
fragmenstein_placed,CpKRS_FrAncestor_bulkdock_iter2

>  <ref_pdb>  (238) 
x0540b

>  <energy_score>  (238) 
-4.867938

>  <distance_score>  (238) 
0.308406

>  <HIPPO Pose ID>  (238) 
53615

>  <ref_mols>  (238) 
x0485a

>  <smiles>  (238) 
Cc1ccc(Cl)cc1NC(=O)c1ccncc1F

>  <HIPPO Compound ID>  (238) 
157680

>  <alias>  (238) 
PECXHWQWXIKBGH-UHFFFAOYSA-N-P30

>  <subsites>  (238) 


>  <placement_batch>  (238) 
CpKRS_FrAncestor_bulkdock_iter2

>  <name>  (238) 
PECXHWQWXIKBGH-UHFFFAOYSA-N-P30

$$$$
AUDIKPGTAPIRSN-UHFFFAOYSA-N-P30
     RDKit          3D

 17 18  0  0  0  0  0  0  0  0999 V2000
    4.6920  -12.1718   22.1586 C   0  0  0  0  0  0  0  0  0  0  0  0
    4.8935  -10.8413   22.8234 C   0  0  0  0  0  0  0  0  0  0  0  0
    5.3792   -9.7857   22.0374 C   0  0  0  0  0  0  0  0  0  0  0  0
    5.6005   -8.5298   22.5882 C   0  0  0  0  0  0  0  0  0  0  0  0
    5.3378   -8.3190   23.9324 C   0  0  0  0  0  0  0  0  0  0  0  0
    5.7910   -6.8363   24.6644 Cl  0  0  0  0  0  0  0  0  0  0  0  0
    4.7585   -9.3187   24.7040 C   0  0  0  0  0  0  0  0  0  0  0  0
    4.5906  -10.5986   24.1705 C   0  0  0  0  0  0  0  0  0  0  0  0
    4.1024  -11.5888   25.0176 N   0  0  0  0  0  0  0  0  0  0  0  0
    4.5230  -13.0707   25.1800 C   0  0  0  0  0  0  0  0  0  0  0  0
    5.2902  -13.7094   24.5759 O   0  0  0  0  0  0  0  0  0  0  0  0
    3.7182  -13.7664   26.2264 C   0  0  0  0  0  0  0  0  0  0  0  0
    2.3942  -13.4236   26.4898 C   0  0  0  0  0  0  0  0  0  0  0  0
    1.7306  -14.1369   27.4683 C   0  0  0  0  0  0  0  0  0  0  0  0
    2.2684  -15.1527   28.1730 N   0  0  0  0  0  0  0  0  0  0  0  0
    3.5364  -15.4943   27.8526 C   0  0  0  0  0  0  0  0  0  0  0  0
    4.2947  -14.8424   26.8995 C   0  0  0  0  0  0  0  0  0  0  0  0
  1  2  1  0
  2  3  2  0
  3  4  1  0
  4  5  2  0
  5  6  1  0
  5  7  1  0
  7  8  2  0
  8  9  1  0
  9 10  1  0
 10 11  2  0
 10 12  1  0
 12 13  2  0
 13 14  1  0
 14 15  2  0
 15 16  1  0
 16 17  2  0
  8  2  1  0
 17 12  1  0
M  END
>  <inchikey>  (239) 
AUDIKPGTAPIRSN-UHFFFAOYSA-N

>  <tags>  (239) 
fragmenstein_placed,CpKRS_FrAncestor_bulkdock_iter2

>  <ref_pdb>  (239) 
x0540b

>  <energy_score>  (239) 
-7.255599

>  <distance_score>  (239) 
0.268902

>  <HIPPO Pose ID>  (239) 
53618

>  <ref_mols>  (239) 
x0485a

>  <smiles>  (239) 
Cc1ccc(Cl)cc1NC(=O)c1ccncc1

>  <HIPPO Compound ID>  (239) 
154879

>  <alias>  (239) 
AUDIKPGTAPIRSN-UHFFFAOYSA-N-P30

>  <subsites>  (239) 


>  <placement_batch>  (239) 
CpKRS_FrAncestor_bulkdock_iter2

>  <name>  (239) 
AUDIKPGTAPIRSN-UHFFFAOYSA-N-P30

$$$$
CBAGDBAYLVYWPM-UHFFFAOYSA-N-P54
     RDKit          3D

 12 12  0  0  0  0  0  0  0  0999 V2000
    5.9825  -39.6949   13.7575 C   0  0  0  0  0  0  0  0  0  0  0  0
    6.8606  -38.8530   12.8726 C   0  0  0  0  0  0  0  0  0  0  0  0
    8.2296  -38.7681   13.1711 C   0  0  0  0  0  0  0  0  0  0  0  0
    9.0836  -37.9728   12.4057 C   0  0  0  0  0  0  0  0  0  0  0  0
    8.5791  -37.2619   11.3233 C   0  0  0  0  0  0  0  0  0  0  0  0
    9.6189  -36.2333   10.4165 Cl  0  0  0  0  0  0  0  0  0  0  0  0
    7.2283  -37.3381   10.9936 C   0  0  0  0  0  0  0  0  0  0  0  0
    6.3649  -38.1099   11.7838 C   0  0  0  0  0  0  0  0  0  0  0  0
    4.6234  -38.0791   11.4537 S   0  0  0  0  0  0  0  0  0  0  0  0
    4.4156  -36.8539   10.3157 N   0  0  0  0  0  0  0  0  0  0  0  0
    3.9414  -37.5878   12.6298 O   0  0  0  0  0  0  0  0  0  0  0  0
    4.2564  -39.2979   10.7752 O   0  0  0  0  0  0  0  0  0  0  0  0
  1  2  1  0
  2  3  2  0
  3  4  1  0
  4  5  2  0
  5  6  1  0
  5  7  1  0
  7  8  2  0
  8  9  1  0
  9 10  1  0
  9 11  2  0
  9 12  2  0
  8  2  1  0
M  END
>  <inchikey>  (240) 
CBAGDBAYLVYWPM-UHFFFAOYSA-N

>  <tags>  (240) 
fragmenstein_placed,CpKRS_FrAncestor_bulkdock_iter2

>  <ref_pdb>  (240) 
x0540b

>  <energy_score>  (240) 
-26.777344

>  <distance_score>  (240) 
0.449285

>  <HIPPO Pose ID>  (240) 
53623

>  <ref_mols>  (240) 
x0639c

>  <smiles>  (240) 
Cc1ccc(Cl)cc1S(N)(=O)=O

>  <HIPPO Compound ID>  (240) 
447635

>  <alias>  (240) 
CBAGDBAYLVYWPM-UHFFFAOYSA-N-P54

>  <subsites>  (240) 


>  <placement_batch>  (240) 
CpKRS_FrAncestor_bulkdock_iter2

>  <name>  (240) 
CBAGDBAYLVYWPM-UHFFFAOYSA-N-P54

$$$$
VWLUJXATMFHKLP-UHFFFAOYSA-N-P54
     RDKit          3D

 15 15  0  0  0  0  0  0  0  0999 V2000
    5.9592  -40.4887   12.9798 C   0  0  0  0  0  0  0  0  0  0  0  0
    6.8975  -39.4102   12.5159 C   0  0  0  0  0  0  0  0  0  0  0  0
    6.4003  -38.4317   11.6361 C   0  0  0  0  0  0  0  0  0  0  0  0
    7.2300  -37.4277   11.1362 C   0  0  0  0  0  0  0  0  0  0  0  0
    8.5557  -37.3536   11.5521 C   0  0  0  0  0  0  0  0  0  0  0  0
    9.5672  -36.1083   10.9286 Cl  0  0  0  0  0  0  0  0  0  0  0  0
    9.0682  -38.2914   12.4420 C   0  0  0  0  0  0  0  0  0  0  0  0
    8.2537  -39.3423   12.8971 C   0  0  0  0  0  0  0  0  0  0  0  0
    9.0499  -40.6153   13.8742 S   0  0  0  0  0  0  0  0  0  0  0  0
   10.2707  -40.0912   14.4452 O   0  0  0  0  0  0  0  0  0  0  0  0
    8.0714  -41.3308   14.6611 O   0  0  0  0  0  0  0  0  0  0  0  0
    9.4845  -41.7026   12.6636 N   0  0  0  0  0  0  0  0  0  0  0  0
   10.7205  -41.5130   11.9000 C   0  0  0  0  0  0  0  0  0  0  0  0
   10.4533  -41.9276   10.4569 C   0  0  0  0  0  0  0  0  0  0  0  0
   11.8291  -42.3606   12.5124 C   0  0  0  0  0  0  0  0  0  0  0  0
  1  2  1  0
  2  3  2  0
  3  4  1  0
  4  5  2  0
  5  6  1  0
  5  7  1  0
  7  8  2  0
  8  9  1  0
  9 10  2  0
  9 11  2  0
  9 12  1  0
 12 13  1  0
 13 14  1  0
 13 15  1  0
  8  2  1  0
M  END
>  <inchikey>  (241) 
VWLUJXATMFHKLP-UHFFFAOYSA-N

>  <tags>  (241) 
fragmenstein_placed,CpKRS_FrAncestor_bulkdock_iter2

>  <ref_pdb>  (241) 
x0540b

>  <energy_score>  (241) 
-40.277183

>  <distance_score>  (241) 
0.513226

>  <HIPPO Pose ID>  (241) 
53626

>  <ref_mols>  (241) 
x0639c

>  <smiles>  (241) 
Cc1ccc(Cl)cc1S(=O)(=O)NC(C)C

>  <HIPPO Compound ID>  (241) 
312082

>  <alias>  (241) 
VWLUJXATMFHKLP-UHFFFAOYSA-N-P54

>  <subsites>  (241) 


>  <placement_batch>  (241) 
CpKRS_FrAncestor_bulkdock_iter2

>  <name>  (241) 
VWLUJXATMFHKLP-UHFFFAOYSA-N-P54

$$$$
SVONLBWBQJDFNM-UHFFFAOYSA-N-P60
     RDKit          3D

 15 16  0  0  0  0  0  0  0  0999 V2000
   -3.6263  -25.4519   27.0738 C   0  0  0  0  0  0  0  0  0  0  0  0
   -2.7755  -25.6157   25.8509 C   0  0  0  0  0  0  0  0  0  0  0  0
   -1.9981  -24.5548   25.3886 C   0  0  0  0  0  0  0  0  0  0  0  0
   -1.1841  -24.7151   24.2671 C   0  0  0  0  0  0  0  0  0  0  0  0
   -1.1104  -25.9444   23.6100 C   0  0  0  0  0  0  0  0  0  0  0  0
   -0.0696  -26.0531   22.2360 Cl  0  0  0  0  0  0  0  0  0  0  0  0
   -1.8856  -27.0258   24.0510 C   0  0  0  0  0  0  0  0  0  0  0  0
   -1.8851  -28.3686   23.3531 C   0  0  0  0  0  0  0  0  0  0  0  0
   -0.7747  -29.2548   23.7369 N   0  0  0  0  0  0  0  0  0  0  0  0
   -0.6929  -30.3847   22.7782 C   0  0  0  0  0  0  0  0  0  0  0  0
   -0.2635  -31.7061   23.4323 C   0  0  0  0  0  0  0  0  0  0  0  0
   -1.1948  -32.1311   24.4388 O   0  0  0  0  0  0  0  0  0  0  0  0
   -1.6952  -31.0489   25.2350 C   0  0  0  0  0  0  0  0  0  0  0  0
   -0.8685  -29.7613   25.1174 C   0  0  0  0  0  0  0  0  0  0  0  0
   -2.7147  -26.8416   25.1776 C   0  0  0  0  0  0  0  0  0  0  0  0
  1  2  1  0
  2  3  2  0
  3  4  1  0
  4  5  2  0
  5  6  1  0
  5  7  1  0
  7  8  1  0
  8  9  1  0
  9 10  1  0
 10 11  1  0
 11 12  1  0
 12 13  1  0
 13 14  1  0
  7 15  2  0
 15  2  1  0
 14  9  1  0
M  END
>  <inchikey>  (242) 
SVONLBWBQJDFNM-UHFFFAOYSA-N

>  <tags>  (242) 
fragmenstein_placed,CpKRS_FrAncestor_bulkdock_iter2

>  <ref_pdb>  (242) 
x0540b

>  <energy_score>  (242) 
-22.619628

>  <distance_score>  (242) 
0.391695

>  <HIPPO Pose ID>  (242) 
53628

>  <ref_mols>  (242) 
x0675b

>  <smiles>  (242) 
Cc1ccc(Cl)c(CN2CCOCC2)c1

>  <HIPPO Compound ID>  (242) 
324488

>  <alias>  (242) 
SVONLBWBQJDFNM-UHFFFAOYSA-N-P60

>  <subsites>  (242) 


>  <placement_batch>  (242) 
CpKRS_FrAncestor_bulkdock_iter2

>  <name>  (242) 
SVONLBWBQJDFNM-UHFFFAOYSA-N-P60

$$$$
SYKXLKYHZCNTHB-NSHDSACASA-N-P60
     RDKit          3D

 16 17  0  0  0  0  0  0  0  0999 V2000
   -3.5768  -25.4967   27.0670 C   0  0  0  0  0  0  0  0  0  0  0  0
   -2.7422  -25.6460   25.8309 C   0  0  0  0  0  0  0  0  0  0  0  0
   -1.9823  -24.5739   25.3645 C   0  0  0  0  0  0  0  0  0  0  0  0
   -1.1809  -24.7190   24.2320 C   0  0  0  0  0  0  0  0  0  0  0  0
   -1.1031  -25.9438   23.5665 C   0  0  0  0  0  0  0  0  0  0  0  0
   -0.0822  -26.0308   22.1758 Cl  0  0  0  0  0  0  0  0  0  0  0  0
   -1.8581  -27.0376   24.0130 C   0  0  0  0  0  0  0  0  0  0  0  0
   -1.8395  -28.3819   23.3152 C   0  0  0  0  0  0  0  0  0  0  0  0
   -0.6933  -29.2362   23.6732 N   0  0  0  0  0  0  0  0  0  0  0  0
   -0.7346  -29.7093   25.0669 C   0  0  0  0  0  0  0  0  0  0  0  0
   -1.6438  -30.9289   25.2783 C   0  0  0  0  0  0  0  0  0  0  0  0
   -1.3726  -32.0287   24.4005 O   0  0  0  0  0  0  0  0  0  0  0  0
   -0.3461  -31.7385   23.4434 C   0  0  0  0  0  0  0  0  0  0  0  0
   -0.6010  -30.3886   22.7351 C   0  0  2  0  0  0  0  0  0  0  0  0
    0.5064  -30.1079   21.7201 C   0  0  0  0  0  0  0  0  0  0  0  0
   -2.6751  -26.8688   25.1513 C   0  0  0  0  0  0  0  0  0  0  0  0
  1  2  1  0
  2  3  2  0
  3  4  1  0
  4  5  2  0
  5  6  1  0
  5  7  1  0
  7  8  1  0
  8  9  1  0
  9 10  1  0
 10 11  1  0
 11 12  1  0
 12 13  1  0
 13 14  1  0
 14 15  1  6
  7 16  2  0
 16  2  1  0
 14  9  1  0
M  END
>  <inchikey>  (243) 
SYKXLKYHZCNTHB-UHFFFAOYSA-N

>  <tags>  (243) 
fragmenstein_placed,CpKRS_FrAncestor_bulkdock_iter2

>  <ref_pdb>  (243) 
x0540b

>  <energy_score>  (243) 
-30.903838

>  <distance_score>  (243) 
0.349511

>  <HIPPO Pose ID>  (243) 
53632

>  <ref_mols>  (243) 
x0675b

>  <smiles>  (243) 
Cc1ccc(Cl)c(CN2CCOC[C@@H]2C)c1

>  <HIPPO Compound ID>  (243) 
139946

>  <alias>  (243) 
SYKXLKYHZCNTHB-NSHDSACASA-N-P60

>  <subsites>  (243) 


>  <placement_batch>  (243) 
CpKRS_FrAncestor_bulkdock_iter2

>  <name>  (243) 
SYKXLKYHZCNTHB-NSHDSACASA-N-P60

$$$$
ODYOWAFJBWGLIM-UHFFFAOYSA-N-P20
     RDKit          3D

 16 17  0  0  0  0  0  0  0  0999 V2000
    4.9144    9.7577   40.4475 C   0  0  0  0  0  0  0  0  0  0  0  0
    4.9406    8.2710   40.6128 C   0  0  0  0  0  0  0  0  0  0  0  0
    5.8412    7.5079   39.8750 C   0  0  0  0  0  0  0  0  0  0  0  0
    5.9239    6.1422   40.1181 C   0  0  0  0  0  0  0  0  0  0  0  0
    5.0789    5.5698   41.0626 C   0  0  0  0  0  0  0  0  0  0  0  0
    5.4900    4.0091   41.6372 Cl  0  0  0  0  0  0  0  0  0  0  0  0
    4.1209    6.3796   41.6688 C   0  0  0  0  0  0  0  0  0  0  0  0
    3.1127    5.8306   42.6449 C   0  0  0  0  0  0  0  0  0  0  0  0
    2.7409    4.7320   42.5430 O   0  0  0  0  0  0  0  0  0  0  0  0
    2.8206    6.8853   43.7249 N   0  0  0  0  0  0  0  0  0  0  0  0
    2.0925    6.7832   44.9459 C   0  0  0  0  0  0  0  0  0  0  0  0
    2.8430    5.9513   45.9373 C   0  0  2  0  0  0  0  0  0  0  0  0
    3.5343    4.6292   45.6315 C   0  0  0  0  0  0  0  0  0  0  0  0
    2.2023    4.6469   46.2845 C   0  0  1  0  0  0  0  0  0  0  0  0
    2.0431    4.1247   47.9001 Cl  0  0  0  0  0  0  0  0  0  0  0  0
    4.0819    7.7348   41.5106 N   0  0  0  0  0  0  0  0  0  0  0  0
  1  2  1  0
  2  3  2  0
  3  4  1  0
  4  5  2  0
  5  6  1  0
  5  7  1  0
  7  8  1  0
  8  9  2  0
  8 10  1  0
 10 11  1  0
 12 11  1  6
 12 13  1  0
 13 14  1  0
 14 15  1  1
  7 16  2  0
 16  2  1  0
 14 12  1  0
M  END
>  <inchikey>  (244) 
ODYOWAFJBWGLIM-UHFFFAOYSA-N

>  <tags>  (244) 
fragmenstein_placed,CpKRS_FrAncestor_bulkdock_iter2

>  <ref_pdb>  (244) 
x0540b

>  <energy_score>  (244) 
-5.781366

>  <distance_score>  (244) 
0.860841

>  <HIPPO Pose ID>  (244) 
53636

>  <ref_mols>  (244) 
x0456a

>  <smiles>  (244) 
Cc1ccc(Cl)c(C(=O)NCC2CC2Cl)n1

>  <HIPPO Compound ID>  (244) 
130779

>  <alias>  (244) 
ODYOWAFJBWGLIM-UHFFFAOYSA-N-P20

>  <subsites>  (244) 


>  <placement_batch>  (244) 
CpKRS_FrAncestor_bulkdock_iter2

>  <name>  (244) 
ODYOWAFJBWGLIM-UHFFFAOYSA-N-P20

$$$$
MDZJWZJCVFVUFT-UHFFFAOYSA-N-P38
     RDKit          3D

 16 16  0  0  0  0  0  0  0  0999 V2000
   -0.3918  -13.1625   25.8123 C   0  0  0  0  0  0  0  0  0  0  0  0
    1.0442  -13.5447   26.0308 C   0  0  0  0  0  0  0  0  0  0  0  0
    1.3519  -14.4758   27.0205 C   0  0  0  0  0  0  0  0  0  0  0  0
    2.6403  -14.9758   27.1378 C   0  0  0  0  0  0  0  0  0  0  0  0
    3.6628  -14.5288   26.2911 C   0  0  0  0  0  0  0  0  0  0  0  0
    5.1672  -15.3531   26.5367 Cl  0  0  0  0  0  0  0  0  0  0  0  0
    3.4223  -13.5137   25.3346 C   0  0  0  0  0  0  0  0  0  0  0  0
    4.5765  -12.9608   24.4861 C   0  0  0  0  0  0  0  0  0  0  0  0
    5.6564  -13.2451   24.8087 O   0  0  0  0  0  0  0  0  0  0  0  0
    4.0839  -12.0664   23.3387 N   0  0  0  0  0  0  0  0  0  0  0  0
    4.8169  -11.2582   22.4055 C   0  0  0  0  0  0  0  0  0  0  0  0
    4.6450   -9.7562   22.6688 C   0  0  0  0  0  0  0  0  0  0  0  0
    5.2182   -9.3219   24.0173 C   0  0  0  0  0  0  0  0  0  0  0  0
    5.3179   -8.9675   21.5526 C   0  0  0  0  0  0  0  0  0  0  0  0
    2.0869  -13.0397   25.2278 C   0  0  0  0  0  0  0  0  0  0  0  0
    1.7750  -12.0548   24.3147 O   0  0  0  0  0  0  0  0  0  0  0  0
  1  2  1  0
  2  3  2  0
  3  4  1  0
  4  5  2  0
  5  6  1  0
  5  7  1  0
  7  8  1  0
  8  9  2  0
  8 10  1  0
 10 11  1  0
 11 12  1  0
 12 13  1  0
 12 14  1  0
  7 15  2  0
 15 16  1  0
 15  2  1  0
M  END
>  <inchikey>  (245) 
MDZJWZJCVFVUFT-UHFFFAOYSA-N

>  <tags>  (245) 
fragmenstein_placed,CpKRS_FrAncestor_bulkdock_iter2

>  <ref_pdb>  (245) 
x0540b

>  <energy_score>  (245) 
-19.083193

>  <distance_score>  (245) 
0.528885

>  <HIPPO Pose ID>  (245) 
53639

>  <ref_mols>  (245) 
x0555a

>  <smiles>  (245) 
Cc1ccc(Cl)c(C(=O)NCC(C)C)c1O

>  <HIPPO Compound ID>  (245) 
136298

>  <alias>  (245) 
MDZJWZJCVFVUFT-UHFFFAOYSA-N-P38

>  <subsites>  (245) 


>  <placement_batch>  (245) 
CpKRS_FrAncestor_bulkdock_iter2

>  <name>  (245) 
MDZJWZJCVFVUFT-UHFFFAOYSA-N-P38

$$$$
FIVXAVBGANLLCR-MRVPVSSYSA-N-P20
     RDKit          3D

 16 17  0  0  0  0  0  0  0  0999 V2000
    4.3792    9.5193   40.8256 C   0  0  0  0  0  0  0  0  0  0  0  0
    4.6577    8.0476   40.8669 C   0  0  0  0  0  0  0  0  0  0  0  0
    5.5695    7.4997   39.9703 C   0  0  0  0  0  0  0  0  0  0  0  0
    5.9051    6.1574   40.0904 C   0  0  0  0  0  0  0  0  0  0  0  0
    5.3060    5.3874   41.0841 C   0  0  0  0  0  0  0  0  0  0  0  0
    6.0827    3.8998   41.4548 Cl  0  0  0  0  0  0  0  0  0  0  0  0
    4.3173    5.9782   41.8754 C   0  0  0  0  0  0  0  0  0  0  0  0
    3.5585    5.2124   42.9415 C   0  0  0  0  0  0  0  0  0  0  0  0
    3.5026    4.0503   42.8834 O   0  0  0  0  0  0  0  0  0  0  0  0
    2.9834    6.1895   43.9871 N   0  0  0  0  0  0  0  0  0  0  0  0
    2.1378    5.9472   45.1297 C   0  0  2  0  0  0  0  0  0  0  0  0
    1.5188    7.2165   45.6881 C   0  0  0  0  0  0  0  0  0  0  0  0
    2.9469    5.2523   46.1899 C   0  0  0  0  0  0  0  0  0  0  0  0
    3.2352    3.7782   46.0846 C   0  0  0  0  0  0  0  0  0  0  0  0
    2.2892    4.2772   47.1375 C   0  0  0  0  0  0  0  0  0  0  0  0
    4.0240    7.3155   41.8171 N   0  0  0  0  0  0  0  0  0  0  0  0
  1  2  1  0
  2  3  2  0
  3  4  1  0
  4  5  2  0
  5  6  1  0
  5  7  1  0
  7  8  1  0
  8  9  2  0
  8 10  1  0
 10 11  1  0
 11 12  1  1
 11 13  1  0
 13 14  1  0
 14 15  1  0
  7 16  2  0
 16  2  1  0
 15 13  1  0
M  END
>  <inchikey>  (246) 
FIVXAVBGANLLCR-UHFFFAOYSA-N

>  <tags>  (246) 
fragmenstein_placed,CpKRS_FrAncestor_bulkdock_iter2

>  <ref_pdb>  (246) 
x0540b

>  <energy_score>  (246) 
-16.137889

>  <distance_score>  (246) 
0.404501

>  <HIPPO Pose ID>  (246) 
53641

>  <ref_mols>  (246) 
x0456a

>  <smiles>  (246) 
Cc1ccc(Cl)c(C(=O)N[C@H](C)C2CC2)n1

>  <HIPPO Compound ID>  (246) 
126783

>  <alias>  (246) 
FIVXAVBGANLLCR-MRVPVSSYSA-N-P20

>  <subsites>  (246) 


>  <placement_batch>  (246) 
CpKRS_FrAncestor_bulkdock_iter2

>  <name>  (246) 
FIVXAVBGANLLCR-MRVPVSSYSA-N-P20

$$$$
PWUVWXXGWRXVAZ-UHFFFAOYSA-N-P22
     RDKit          3D

 14 14  0  0  0  0  0  0  0  0999 V2000
   24.7015    3.7013   26.2310 C   0  0  0  0  0  0  0  0  0  0  0  0
   24.8905    5.1700   25.9997 C   0  0  0  0  0  0  0  0  0  0  0  0
   26.0035    5.8243   26.5295 C   0  0  0  0  0  0  0  0  0  0  0  0
   26.2327    7.1638   26.2283 C   0  0  0  0  0  0  0  0  0  0  0  0
   25.3498    7.8636   25.3999 C   0  0  0  0  0  0  0  0  0  0  0  0
   25.7748    9.4894   24.9906 Cl  0  0  0  0  0  0  0  0  0  0  0  0
   24.1982    7.2434   24.8932 C   0  0  0  0  0  0  0  0  0  0  0  0
   23.1965    7.9859   24.0423 C   0  0  0  0  0  0  0  0  0  0  0  0
   22.3652    8.7565   24.8898 O   0  0  0  0  0  0  0  0  0  0  0  0
   21.8221   10.1834   24.3613 S   0  0  0  0  0  0  0  0  0  0  0  0
   20.8414    9.7964   23.0614 N   0  0  0  0  0  0  0  0  0  0  0  0
   22.8999   10.9692   23.8101 O   0  0  0  0  0  0  0  0  0  0  0  0
   20.9236   10.7392   25.3509 O   0  0  0  0  0  0  0  0  0  0  0  0
   23.9832    5.8869   25.2024 C   0  0  0  0  0  0  0  0  0  0  0  0
  1  2  1  0
  2  3  2  0
  3  4  1  0
  4  5  2  0
  5  6  1  0
  5  7  1  0
  7  8  1  0
  8  9  1  0
  9 10  1  0
 10 11  1  0
 10 12  2  0
 10 13  2  0
  7 14  2  0
 14  2  1  0
M  END
>  <inchikey>  (247) 
PWUVWXXGWRXVAZ-UHFFFAOYSA-N

>  <tags>  (247) 
fragmenstein_placed,CpKRS_FrAncestor_bulkdock_iter2

>  <ref_pdb>  (247) 
x0540b

>  <energy_score>  (247) 
-24.860818

>  <distance_score>  (247) 
0.398796

>  <HIPPO Pose ID>  (247) 
53644

>  <ref_mols>  (247) 
x0472b

>  <smiles>  (247) 
Cc1ccc(Cl)c(COS(N)(=O)=O)c1

>  <HIPPO Compound ID>  (247) 
447637

>  <alias>  (247) 
PWUVWXXGWRXVAZ-UHFFFAOYSA-N-P22

>  <subsites>  (247) 


>  <placement_batch>  (247) 
CpKRS_FrAncestor_bulkdock_iter2

>  <name>  (247) 
PWUVWXXGWRXVAZ-UHFFFAOYSA-N-P22

$$$$
JXWTXKQEIHGCME-UHFFFAOYSA-N-P38
     RDKit          3D

 17 17  0  0  0  0  0  0  0  0999 V2000
   -0.3633  -13.2211   25.8451 C   0  0  0  0  0  0  0  0  0  0  0  0
    1.0752  -13.5966   26.0585 C   0  0  0  0  0  0  0  0  0  0  0  0
    1.3944  -14.5167   27.0537 C   0  0  0  0  0  0  0  0  0  0  0  0
    2.6875  -15.0056   27.1671 C   0  0  0  0  0  0  0  0  0  0  0  0
    3.7058  -14.5494   26.3193 C   0  0  0  0  0  0  0  0  0  0  0  0
    5.2163  -15.3607   26.5649 Cl  0  0  0  0  0  0  0  0  0  0  0  0
    3.4564  -13.5364   25.3638 C   0  0  0  0  0  0  0  0  0  0  0  0
    4.6087  -12.9523   24.5281 C   0  0  0  0  0  0  0  0  0  0  0  0
    5.6839  -13.3080   24.7804 O   0  0  0  0  0  0  0  0  0  0  0  0
    4.1161  -11.9615   23.4797 N   0  0  0  0  0  0  0  0  0  0  0  0
    4.8222  -11.1485   22.6053 O   0  0  0  0  0  0  0  0  0  0  0  0
    4.7053   -9.7527   22.9369 C   0  0  0  0  0  0  0  0  0  0  0  0
    3.2749   -9.3440   23.3073 C   0  0  0  0  0  0  0  0  0  0  0  0
    5.6444   -9.3733   24.0809 C   0  0  0  0  0  0  0  0  0  0  0  0
    5.1537   -9.0104   21.6738 C   0  0  0  0  0  0  0  0  0  0  0  0
    2.1111  -13.0932   25.2462 C   0  0  0  0  0  0  0  0  0  0  0  0
    1.7789  -12.1463   24.3018 O   0  0  0  0  0  0  0  0  0  0  0  0
  1  2  1  0
  2  3  2  0
  3  4  1  0
  4  5  2  0
  5  6  1  0
  5  7  1  0
  7  8  1  0
  8  9  2  0
  8 10  1  0
 10 11  1  0
 11 12  1  0
 12 13  1  0
 12 14  1  0
 12 15  1  0
  7 16  2  0
 16 17  1  0
 16  2  1  0
M  END
>  <inchikey>  (248) 
JXWTXKQEIHGCME-UHFFFAOYSA-N

>  <tags>  (248) 
fragmenstein_placed,CpKRS_FrAncestor_bulkdock_iter2

>  <ref_pdb>  (248) 
x0540b

>  <energy_score>  (248) 
-12.324888

>  <distance_score>  (248) 
0.472347

>  <HIPPO Pose ID>  (248) 
53646

>  <ref_mols>  (248) 
x0555a

>  <smiles>  (248) 
Cc1ccc(Cl)c(C(=O)NOC(C)(C)C)c1O

>  <HIPPO Compound ID>  (248) 
447638

>  <alias>  (248) 
JXWTXKQEIHGCME-UHFFFAOYSA-N-P38

>  <subsites>  (248) 


>  <placement_batch>  (248) 
CpKRS_FrAncestor_bulkdock_iter2

>  <name>  (248) 
JXWTXKQEIHGCME-UHFFFAOYSA-N-P38

$$$$
IJYOIJGUSKCILR-UHFFFAOYSA-N-P38
     RDKit          3D

 16 16  0  0  0  0  0  0  0  0999 V2000
    5.1109  -15.2817   26.6649 C   0  0  0  0  0  0  0  0  0  0  0  0
    3.7738  -14.6064   26.4926 C   0  0  0  0  0  0  0  0  0  0  0  0
    2.7796  -15.0803   27.3743 C   0  0  0  0  0  0  0  0  0  0  0  0
    1.4667  -14.6635   27.2659 C   0  0  0  0  0  0  0  0  0  0  0  0
    1.1180  -13.8018   26.2432 C   0  0  0  0  0  0  0  0  0  0  0  0
   -0.5568  -13.5045   25.9533 Cl  0  0  0  0  0  0  0  0  0  0  0  0
    2.0932  -13.2400   25.4048 C   0  0  0  0  0  0  0  0  0  0  0  0
    1.6682  -12.3062   24.4801 O   0  0  0  0  0  0  0  0  0  0  0  0
    3.4482  -13.6323   25.4978 C   0  0  0  0  0  0  0  0  0  0  0  0
    4.5416  -13.0735   24.5679 C   0  0  0  0  0  0  0  0  0  0  0  0
    5.5956  -13.5561   24.6526 O   0  0  0  0  0  0  0  0  0  0  0  0
    4.0411  -11.9276   23.6766 N   0  0  0  0  0  0  0  0  0  0  0  0
    4.7074  -11.1963   22.6336 C   0  0  0  0  0  0  0  0  0  0  0  0
    4.5826   -9.6766   22.7787 C   0  0  0  0  0  0  0  0  0  0  0  0
    5.2482   -8.9993   21.5839 C   0  0  0  0  0  0  0  0  0  0  0  0
    5.2140   -9.1599   24.0712 C   0  0  0  0  0  0  0  0  0  0  0  0
  1  2  1  0
  2  3  2  0
  3  4  1  0
  4  5  2  0
  5  6  1  0
  5  7  1  0
  7  8  1  0
  7  9  2  0
  9 10  1  0
 10 11  2  0
 10 12  1  0
 12 13  1  0
 13 14  1  0
 14 15  1  0
 14 16  1  0
  9  2  1  0
M  END
>  <inchikey>  (249) 
IJYOIJGUSKCILR-UHFFFAOYSA-N

>  <tags>  (249) 
fragmenstein_placed,CpKRS_FrAncestor_bulkdock_iter2

>  <ref_pdb>  (249) 
x0540b

>  <energy_score>  (249) 
-21.097366

>  <distance_score>  (249) 
0.397253

>  <HIPPO Pose ID>  (249) 
53650

>  <ref_mols>  (249) 
x0555a

>  <smiles>  (249) 
Cc1ccc(Cl)c(O)c1C(=O)NCC(C)C

>  <HIPPO Compound ID>  (249) 
126266

>  <alias>  (249) 
IJYOIJGUSKCILR-UHFFFAOYSA-N-P38

>  <subsites>  (249) 


>  <placement_batch>  (249) 
CpKRS_FrAncestor_bulkdock_iter2

>  <name>  (249) 
IJYOIJGUSKCILR-UHFFFAOYSA-N-P38

$$$$
VUXNRFJWWRPLBO-UHFFFAOYSA-N-P38
     RDKit          3D

 17 17  0  0  0  0  0  0  0  0999 V2000
    5.2447  -15.2871   26.6102 C   0  0  0  0  0  0  0  0  0  0  0  0
    3.8838  -14.6533   26.4724 C   0  0  0  0  0  0  0  0  0  0  0  0
    2.9269  -15.1851   27.3643 C   0  0  0  0  0  0  0  0  0  0  0  0
    1.5985  -14.8093   27.3062 C   0  0  0  0  0  0  0  0  0  0  0  0
    1.1955  -13.9230   26.3265 C   0  0  0  0  0  0  0  0  0  0  0  0
   -0.4937  -13.6472   26.1089 Cl  0  0  0  0  0  0  0  0  0  0  0  0
    2.1307  -13.3112   25.4767 C   0  0  0  0  0  0  0  0  0  0  0  0
    1.6568  -12.3482   24.6069 O   0  0  0  0  0  0  0  0  0  0  0  0
    3.4994  -13.6697   25.5099 C   0  0  0  0  0  0  0  0  0  0  0  0
    4.5446  -13.0429   24.5630 C   0  0  0  0  0  0  0  0  0  0  0  0
    5.6443  -13.3897   24.6940 O   0  0  0  0  0  0  0  0  0  0  0  0
    3.9432  -11.9924   23.6356 N   0  0  0  0  0  0  0  0  0  0  0  0
    4.5302  -11.2309   22.6327 O   0  0  0  0  0  0  0  0  0  0  0  0
    4.5584   -9.8280   22.9591 C   0  0  0  0  0  0  0  0  0  0  0  0
    5.0441   -9.1262   21.6844 C   0  0  0  0  0  0  0  0  0  0  0  0
    3.1704   -9.3168   23.3592 C   0  0  0  0  0  0  0  0  0  0  0  0
    5.5529   -9.5140   24.0763 C   0  0  0  0  0  0  0  0  0  0  0  0
  1  2  1  0
  2  3  2  0
  3  4  1  0
  4  5  2  0
  5  6  1  0
  5  7  1  0
  7  8  1  0
  7  9  2  0
  9 10  1  0
 10 11  2  0
 10 12  1  0
 12 13  1  0
 13 14  1  0
 14 15  1  0
 14 16  1  0
 14 17  1  0
  9  2  1  0
M  END
>  <inchikey>  (250) 
VUXNRFJWWRPLBO-UHFFFAOYSA-N

>  <tags>  (250) 
fragmenstein_placed,CpKRS_FrAncestor_bulkdock_iter2

>  <ref_pdb>  (250) 
x0540b

>  <energy_score>  (250) 
-18.431223

>  <distance_score>  (250) 
0.429083

>  <HIPPO Pose ID>  (250) 
53651

>  <ref_mols>  (250) 
x0555a

>  <smiles>  (250) 
Cc1ccc(Cl)c(O)c1C(=O)NOC(C)(C)C

>  <HIPPO Compound ID>  (250) 
150590

>  <alias>  (250) 
VUXNRFJWWRPLBO-UHFFFAOYSA-N-P38

>  <subsites>  (250) 


>  <placement_batch>  (250) 
CpKRS_FrAncestor_bulkdock_iter2

>  <name>  (250) 
VUXNRFJWWRPLBO-UHFFFAOYSA-N-P38

$$$$
QDGORVYVDJZWPF-UHFFFAOYSA-N-P52
     RDKit          3D

 12 12  0  0  0  0  0  0  0  0999 V2000
   26.9210    9.1790   24.3765 C   0  0  0  0  0  0  0  0  0  0  0  0
   25.4735    9.5082   24.1657 C   0  0  0  0  0  0  0  0  0  0  0  0
   25.0979   10.4888   23.2471 C   0  0  0  0  0  0  0  0  0  0  0  0
   23.7484   10.7751   23.0357 C   0  0  0  0  0  0  0  0  0  0  0  0
   22.7494   10.1000   23.7432 C   0  0  0  0  0  0  0  0  0  0  0  0
   21.1169   10.5568   23.4224 Cl  0  0  0  0  0  0  0  0  0  0  0  0
   23.1177    9.1083   24.6488 C   0  0  0  0  0  0  0  0  0  0  0  0
   21.9138    8.2225   25.5870 S   0  0  0  0  0  0  0  0  0  0  0  0
   21.0334    7.4337   24.4126 N   0  0  0  0  0  0  0  0  0  0  0  0
   22.6007    7.1893   26.3322 O   0  0  0  0  0  0  0  0  0  0  0  0
   21.0513    9.1658   26.2592 O   0  0  0  0  0  0  0  0  0  0  0  0
   24.4752    8.8023   24.8463 C   0  0  0  0  0  0  0  0  0  0  0  0
  1  2  1  0
  2  3  2  0
  3  4  1  0
  4  5  2  0
  5  6  1  0
  5  7  1  0
  7  8  1  0
  8  9  1  0
  8 10  2  0
  8 11  2  0
  7 12  2  0
 12  2  1  0
M  END
>  <inchikey>  (251) 
QDGORVYVDJZWPF-UHFFFAOYSA-N

>  <tags>  (251) 
fragmenstein_placed,CpKRS_FrAncestor_bulkdock_iter2

>  <ref_pdb>  (251) 
x0540b

>  <energy_score>  (251) 
-28.655852

>  <distance_score>  (251) 
0.308144

>  <HIPPO Pose ID>  (251) 
53652

>  <ref_mols>  (251) 
x0639a

>  <smiles>  (251) 
Cc1ccc(Cl)c(S(N)(=O)=O)c1

>  <HIPPO Compound ID>  (251) 
447640

>  <alias>  (251) 
QDGORVYVDJZWPF-UHFFFAOYSA-N-P52

>  <subsites>  (251) 


>  <placement_batch>  (251) 
CpKRS_FrAncestor_bulkdock_iter2

>  <name>  (251) 
QDGORVYVDJZWPF-UHFFFAOYSA-N-P52

$$$$
MLLSYVXWELFAIY-UHFFFAOYSA-N-P54
     RDKit          3D

 16 16  0  0  0  0  0  0  0  0999 V2000
    6.0698  -39.8419   13.8106 C   0  0  0  0  0  0  0  0  0  0  0  0
    6.9101  -38.9635   12.9163 C   0  0  0  0  0  0  0  0  0  0  0  0
    8.2903  -38.9384   13.1394 C   0  0  0  0  0  0  0  0  0  0  0  0
    9.1137  -38.1362   12.3619 C   0  0  0  0  0  0  0  0  0  0  0  0
    8.5745  -37.3413   11.3478 C   0  0  0  0  0  0  0  0  0  0  0  0
    9.7361  -36.3997   10.4686 Cl  0  0  0  0  0  0  0  0  0  0  0  0
    7.1871  -37.3439   11.0999 C   0  0  0  0  0  0  0  0  0  0  0  0
    6.5579  -36.2253    9.8709 S   0  0  0  0  0  0  0  0  0  0  0  0
    7.1497  -34.9306   10.1507 O   0  0  0  0  0  0  0  0  0  0  0  0
    5.1231  -36.3114    9.7502 O   0  0  0  0  0  0  0  0  0  0  0  0
    7.2220  -36.7589    8.4382 N   0  0  0  0  0  0  0  0  0  0  0  0
    6.9194  -38.0092    7.7328 C   0  0  0  0  0  0  0  0  0  0  0  0
    5.4439  -38.3733    7.7092 C   0  0  0  0  0  0  0  0  0  0  0  0
    7.7763  -39.1513    8.2617 C   0  0  0  0  0  0  0  0  0  0  0  0
    6.3509  -38.1493   11.9009 C   0  0  0  0  0  0  0  0  0  0  0  0
    4.6230  -38.1909   11.7551 Cl  0  0  0  0  0  0  0  0  0  0  0  0
  1  2  1  0
  2  3  2  0
  3  4  1  0
  4  5  2  0
  5  6  1  0
  5  7  1  0
  7  8  1  0
  8  9  2  0
  8 10  2  0
  8 11  1  0
 11 12  1  0
 12 13  1  0
 12 14  1  0
  7 15  2  0
 15 16  1  0
 15  2  1  0
M  END
>  <inchikey>  (252) 
MLLSYVXWELFAIY-UHFFFAOYSA-N

>  <tags>  (252) 
fragmenstein_placed,CpKRS_FrAncestor_bulkdock_iter2

>  <ref_pdb>  (252) 
x0540b

>  <energy_score>  (252) 
-32.751974

>  <distance_score>  (252) 
0.227101

>  <HIPPO Pose ID>  (252) 
53657

>  <ref_mols>  (252) 
x0639c

>  <smiles>  (252) 
Cc1ccc(Cl)c(S(=O)(=O)NC(C)C)c1Cl

>  <HIPPO Compound ID>  (252) 
134578

>  <alias>  (252) 
MLLSYVXWELFAIY-UHFFFAOYSA-N-P54

>  <subsites>  (252) 


>  <placement_batch>  (252) 
CpKRS_FrAncestor_bulkdock_iter2

>  <name>  (252) 
MLLSYVXWELFAIY-UHFFFAOYSA-N-P54

$$$$
XZPNALYIMCMCQP-UHFFFAOYSA-N-P54
     RDKit          3D

 15 15  0  0  0  0  0  0  0  0999 V2000
    5.8793  -39.8397   13.5655 C   0  0  0  0  0  0  0  0  0  0  0  0
    6.8302  -38.9868   12.7782 C   0  0  0  0  0  0  0  0  0  0  0  0
    8.1823  -38.9370   13.1269 C   0  0  0  0  0  0  0  0  0  0  0  0
    9.0648  -38.1072   12.4320 C   0  0  0  0  0  0  0  0  0  0  0  0
    8.6075  -37.2961   11.3900 C   0  0  0  0  0  0  0  0  0  0  0  0
    9.7841  -36.3092   10.5999 Cl  0  0  0  0  0  0  0  0  0  0  0  0
    7.2535  -37.3258   11.0492 C   0  0  0  0  0  0  0  0  0  0  0  0
    6.5800  -36.2161    9.8433 S   0  0  0  0  0  0  0  0  0  0  0  0
    7.1070  -34.8960   10.1172 O   0  0  0  0  0  0  0  0  0  0  0  0
    5.1494  -36.4295    9.7823 O   0  0  0  0  0  0  0  0  0  0  0  0
    7.2381  -36.7530    8.4153 N   0  0  0  0  0  0  0  0  0  0  0  0
    6.8064  -38.0064    7.8011 C   0  0  0  0  0  0  0  0  0  0  0  0
    5.9673  -37.6886    6.5701 C   0  0  0  0  0  0  0  0  0  0  0  0
    8.0442  -38.8142    7.4297 C   0  0  0  0  0  0  0  0  0  0  0  0
    6.3670  -38.1689   11.7418 C   0  0  0  0  0  0  0  0  0  0  0  0
  1  2  1  0
  2  3  2  0
  3  4  1  0
  4  5  2  0
  5  6  1  0
  5  7  1  0
  7  8  1  0
  8  9  2  0
  8 10  2  0
  8 11  1  0
 11 12  1  0
 12 13  1  0
 12 14  1  0
  7 15  2  0
 15  2  1  0
M  END
>  <inchikey>  (253) 
XZPNALYIMCMCQP-UHFFFAOYSA-N

>  <tags>  (253) 
fragmenstein_placed,CpKRS_FrAncestor_bulkdock_iter2

>  <ref_pdb>  (253) 
x0540b

>  <energy_score>  (253) 
-45.07956

>  <distance_score>  (253) 
0.194472

>  <HIPPO Pose ID>  (253) 
53660

>  <ref_mols>  (253) 
x0639c

>  <smiles>  (253) 
Cc1ccc(Cl)c(S(=O)(=O)NC(C)C)c1

>  <HIPPO Compound ID>  (253) 
312102

>  <alias>  (253) 
XZPNALYIMCMCQP-UHFFFAOYSA-N-P54

>  <subsites>  (253) 


>  <placement_batch>  (253) 
CpKRS_FrAncestor_bulkdock_iter2

>  <name>  (253) 
XZPNALYIMCMCQP-UHFFFAOYSA-N-P54

$$$$
GYVJUYUDTFWPKF-UHFFFAOYSA-N-P60
     RDKit          3D

 15 16  0  0  0  0  0  0  0  0999 V2000
   -2.6413  -23.2041   25.5624 C   0  0  0  0  0  0  0  0  0  0  0  0
   -2.2804  -24.5866   25.1105 C   0  0  0  0  0  0  0  0  0  0  0  0
   -1.3493  -24.7536   24.0752 C   0  0  0  0  0  0  0  0  0  0  0  0
   -1.1023  -26.0165   23.5333 C   0  0  0  0  0  0  0  0  0  0  0  0
   -1.8060  -27.1333   23.9965 C   0  0  0  0  0  0  0  0  0  0  0  0
   -1.6791  -28.4673   23.2961 C   0  0  0  0  0  0  0  0  0  0  0  0
   -0.5663  -29.3089   23.7599 N   0  0  0  0  0  0  0  0  0  0  0  0
   -0.4013  -30.4500   22.8193 C   0  0  0  0  0  0  0  0  0  0  0  0
   -0.1427  -31.7971   23.5116 C   0  0  0  0  0  0  0  0  0  0  0  0
   -1.2123  -32.1484   24.3995 O   0  0  0  0  0  0  0  0  0  0  0  0
   -1.6465  -31.0556   25.2184 C   0  0  0  0  0  0  0  0  0  0  0  0
   -0.7480  -29.8136   25.1325 C   0  0  0  0  0  0  0  0  0  0  0  0
   -2.6767  -26.9791   25.0843 C   0  0  0  0  0  0  0  0  0  0  0  0
   -2.8882  -25.7229   25.6539 C   0  0  0  0  0  0  0  0  0  0  0  0
   -4.0355  -25.6197   27.1608 Br  0  0  0  0  0  0  0  0  0  0  0  0
  1  2  1  0
  2  3  2  0
  3  4  1  0
  4  5  2  0
  5  6  1  0
  6  7  1  0
  7  8  1  0
  8  9  1  0
  9 10  1  0
 10 11  1  0
 11 12  1  0
  5 13  1  0
 13 14  2  0
 14 15  1  0
 14  2  1  0
 12  7  1  0
M  END
>  <inchikey>  (254) 
GYVJUYUDTFWPKF-UHFFFAOYSA-N

>  <tags>  (254) 
fragmenstein_placed,CpKRS_FrAncestor_bulkdock_iter2

>  <ref_pdb>  (254) 
x0540b

>  <energy_score>  (254) 
-10.502171

>  <distance_score>  (254) 
0.491499

>  <HIPPO Pose ID>  (254) 
53662

>  <ref_mols>  (254) 
x0675b

>  <smiles>  (254) 
Cc1ccc(CN2CCOCC2)cc1Br

>  <HIPPO Compound ID>  (254) 
324441

>  <alias>  (254) 
GYVJUYUDTFWPKF-UHFFFAOYSA-N-P60

>  <subsites>  (254) 


>  <placement_batch>  (254) 
CpKRS_FrAncestor_bulkdock_iter2

>  <name>  (254) 
GYVJUYUDTFWPKF-UHFFFAOYSA-N-P60

$$$$
NHMZEOBGVYIXJV-UHFFFAOYSA-N-P60
     RDKit          3D

 15 16  0  0  0  0  0  0  0  0999 V2000
   -2.6481  -23.1936   25.5929 C   0  0  0  0  0  0  0  0  0  0  0  0
   -2.2867  -24.5746   25.1385 C   0  0  0  0  0  0  0  0  0  0  0  0
   -1.3704  -24.7466   24.0916 C   0  0  0  0  0  0  0  0  0  0  0  0
   -1.1345  -26.0131   23.5533 C   0  0  0  0  0  0  0  0  0  0  0  0
   -1.8344  -27.1263   24.0326 C   0  0  0  0  0  0  0  0  0  0  0  0
   -1.7230  -28.4623   23.3329 C   0  0  0  0  0  0  0  0  0  0  0  0
   -0.6033  -29.3035   23.7790 N   0  0  0  0  0  0  0  0  0  0  0  0
   -0.4428  -30.4361   22.8272 C   0  0  0  0  0  0  0  0  0  0  0  0
   -0.1480  -31.7823   23.5060 C   0  0  0  0  0  0  0  0  0  0  0  0
   -1.1965  -32.1598   24.4085 O   0  0  0  0  0  0  0  0  0  0  0  0
   -1.6516  -31.0766   25.2285 C   0  0  0  0  0  0  0  0  0  0  0  0
   -0.7719  -29.8208   25.1489 C   0  0  0  0  0  0  0  0  0  0  0  0
   -2.6876  -26.9650   25.1338 C   0  0  0  0  0  0  0  0  0  0  0  0
   -2.8880  -25.7057   25.6989 C   0  0  0  0  0  0  0  0  0  0  0  0
   -3.9124  -25.5866   27.0845 Cl  0  0  0  0  0  0  0  0  0  0  0  0
  1  2  1  0
  2  3  2  0
  3  4  1  0
  4  5  2  0
  5  6  1  0
  6  7  1  0
  7  8  1  0
  8  9  1  0
  9 10  1  0
 10 11  1  0
 11 12  1  0
  5 13  1  0
 13 14  2  0
 14 15  1  0
 14  2  1  0
 12  7  1  0
M  END
>  <inchikey>  (255) 
NHMZEOBGVYIXJV-UHFFFAOYSA-N

>  <tags>  (255) 
fragmenstein_placed,CpKRS_FrAncestor_bulkdock_iter2

>  <ref_pdb>  (255) 
x0540b

>  <energy_score>  (255) 
-10.000448

>  <distance_score>  (255) 
0.483774

>  <HIPPO Pose ID>  (255) 
53664

>  <ref_mols>  (255) 
x0675b

>  <smiles>  (255) 
Cc1ccc(CN2CCOCC2)cc1Cl

>  <HIPPO Compound ID>  (255) 
324454

>  <alias>  (255) 
NHMZEOBGVYIXJV-UHFFFAOYSA-N-P60

>  <subsites>  (255) 


>  <placement_batch>  (255) 
CpKRS_FrAncestor_bulkdock_iter2

>  <name>  (255) 
NHMZEOBGVYIXJV-UHFFFAOYSA-N-P60

$$$$
PYPIJJOSXFMKIT-UHFFFAOYSA-N-P60
     RDKit          3D

 15 16  0  0  0  0  0  0  0  0999 V2000
   -2.6721  -23.2421   25.7054 C   0  0  0  0  0  0  0  0  0  0  0  0
   -2.3264  -24.6180   25.2203 C   0  0  0  0  0  0  0  0  0  0  0  0
   -1.3652  -24.7716   24.2107 C   0  0  0  0  0  0  0  0  0  0  0  0
   -1.1176  -26.0222   23.6468 C   0  0  0  0  0  0  0  0  0  0  0  0
   -1.8510  -27.1361   24.0638 C   0  0  0  0  0  0  0  0  0  0  0  0
   -1.7206  -28.4558   23.3367 C   0  0  0  0  0  0  0  0  0  0  0  0
   -0.6102  -29.3081   23.7884 N   0  0  0  0  0  0  0  0  0  0  0  0
   -0.7945  -29.8275   25.1553 C   0  0  0  0  0  0  0  0  0  0  0  0
   -1.6769  -31.0817   25.2199 C   0  0  0  0  0  0  0  0  0  0  0  0
   -1.2064  -32.1665   24.4101 O   0  0  0  0  0  0  0  0  0  0  0  0
   -0.1568  -31.7845   23.5102 C   0  0  0  0  0  0  0  0  0  0  0  0
   -0.4503  -30.4370   22.8334 C   0  0  0  0  0  0  0  0  0  0  0  0
   -2.7551  -26.9935   25.1284 C   0  0  0  0  0  0  0  0  0  0  0  0
   -2.9755  -25.7510   25.7374 C   0  0  0  0  0  0  0  0  0  0  0  0
   -3.9400  -25.6466   26.8850 C   0  0  0  0  0  0  0  0  0  0  0  0
  1  2  1  0
  2  3  2  0
  3  4  1  0
  4  5  2  0
  5  6  1  0
  6  7  1  0
  7  8  1  0
  8  9  1  0
  9 10  1  0
 10 11  1  0
 11 12  1  0
  5 13  1  0
 13 14  2  0
 14 15  1  0
 14  2  1  0
 12  7  1  0
M  END
>  <inchikey>  (256) 
PYPIJJOSXFMKIT-UHFFFAOYSA-N

>  <tags>  (256) 
fragmenstein_placed,CpKRS_FrAncestor_bulkdock_iter2

>  <ref_pdb>  (256) 
x0540b

>  <energy_score>  (256) 
-22.252162

>  <distance_score>  (256) 
0.496764

>  <HIPPO Pose ID>  (256) 
53666

>  <ref_mols>  (256) 
x0675b

>  <smiles>  (256) 
Cc1ccc(CN2CCOCC2)cc1C

>  <HIPPO Compound ID>  (256) 
324398

>  <alias>  (256) 
PYPIJJOSXFMKIT-UHFFFAOYSA-N-P60

>  <subsites>  (256) 


>  <placement_batch>  (256) 
CpKRS_FrAncestor_bulkdock_iter2

>  <name>  (256) 
PYPIJJOSXFMKIT-UHFFFAOYSA-N-P60

$$$$
CTZGNNHGYLRPME-UHFFFAOYSA-N-P60
     RDKit          3D

 16 17  0  0  0  0  0  0  0  0999 V2000
   -2.6195  -23.1921   25.5162 C   0  0  0  0  0  0  0  0  0  0  0  0
   -2.3141  -24.6033   25.1076 C   0  0  0  0  0  0  0  0  0  0  0  0
   -1.3459  -24.8292   24.1268 C   0  0  0  0  0  0  0  0  0  0  0  0
   -1.1413  -26.1092   23.6208 C   0  0  0  0  0  0  0  0  0  0  0  0
   -1.9307  -27.1943   24.0447 C   0  0  0  0  0  0  0  0  0  0  0  0
   -1.7474  -28.5070   23.3016 C   0  0  0  0  0  0  0  0  0  0  0  0
   -0.6001  -29.3153   23.7427 N   0  0  0  0  0  0  0  0  0  0  0  0
   -0.7344  -29.8452   25.1101 C   0  0  0  0  0  0  0  0  0  0  0  0
   -1.5189  -31.1628   25.1827 C   0  0  0  0  0  0  0  0  0  0  0  0
   -0.9618  -32.2136   24.3840 O   0  0  0  0  0  0  0  0  0  0  0  0
    0.0222  -31.7506   23.4489 C   0  0  0  0  0  0  0  0  0  0  0  0
   -0.3971  -30.4319   22.7817 C   0  0  0  0  0  0  0  0  0  0  0  0
   -2.8713  -26.9974   25.0862 C   0  0  0  0  0  0  0  0  0  0  0  0
   -3.7425  -28.1159   25.6060 C   0  0  0  0  0  0  0  0  0  0  0  0
   -3.0099  -25.7018   25.6395 C   0  0  0  0  0  0  0  0  0  0  0  0
   -4.1620  -25.4211   27.1419 Br  0  0  0  0  0  0  0  0  0  0  0  0
  1  2  1  0
  2  3  2  0
  3  4  1  0
  4  5  2  0
  5  6  1  0
  6  7  1  0
  7  8  1  0
  8  9  1  0
  9 10  1  0
 10 11  1  0
 11 12  1  0
  5 13  1  0
 13 14  1  0
 13 15  2  0
 15 16  1  0
 15  2  1  0
 12  7  1  0
M  END
>  <inchikey>  (257) 
CTZGNNHGYLRPME-UHFFFAOYSA-N

>  <tags>  (257) 
fragmenstein_placed,CpKRS_FrAncestor_bulkdock_iter2

>  <ref_pdb>  (257) 
x0540b

>  <energy_score>  (257) 
-33.088337

>  <distance_score>  (257) 
0.574761

>  <HIPPO Pose ID>  (257) 
53668

>  <ref_mols>  (257) 
x0675b

>  <smiles>  (257) 
Cc1ccc(CN2CCOCC2)c(C)c1Br

>  <HIPPO Compound ID>  (257) 
142060

>  <alias>  (257) 
CTZGNNHGYLRPME-UHFFFAOYSA-N-P60

>  <subsites>  (257) 


>  <placement_batch>  (257) 
CpKRS_FrAncestor_bulkdock_iter2

>  <name>  (257) 
CTZGNNHGYLRPME-UHFFFAOYSA-N-P60

$$$$
XVVIXSLHTAYMOG-UHFFFAOYSA-N-P60
     RDKit          3D

 16 17  0  0  0  0  0  0  0  0999 V2000
   -2.6360  -23.2355   25.5699 C   0  0  0  0  0  0  0  0  0  0  0  0
   -2.2817  -24.6139   25.0997 C   0  0  0  0  0  0  0  0  0  0  0  0
   -1.3744  -24.7701   24.0420 C   0  0  0  0  0  0  0  0  0  0  0  0
   -1.1352  -26.0286   23.4867 C   0  0  0  0  0  0  0  0  0  0  0  0
   -1.8195  -27.1527   23.9618 C   0  0  0  0  0  0  0  0  0  0  0  0
   -1.6827  -28.4885   23.2638 C   0  0  0  0  0  0  0  0  0  0  0  0
   -0.4811  -29.2494   23.6395 N   0  0  0  0  0  0  0  0  0  0  0  0
   -0.5176  -29.6986   25.0406 C   0  0  0  0  0  0  0  0  0  0  0  0
   -1.4989  -30.8526   25.3162 C   0  0  0  0  0  0  0  0  0  0  0  0
   -1.4931  -31.8828   24.3198 O   0  0  0  0  0  0  0  0  0  0  0  0
   -0.3529  -31.7922   23.4602 C   0  0  0  0  0  0  0  0  0  0  0  0
   -0.3236  -30.4250   22.7356 C   0  0  2  0  0  0  0  0  0  0  0  0
    0.9839  -30.2660   21.9611 C   0  0  0  0  0  0  0  0  0  0  0  0
   -2.6635  -27.0105   25.0720 C   0  0  0  0  0  0  0  0  0  0  0  0
   -2.8719  -25.7569   25.6500 C   0  0  0  0  0  0  0  0  0  0  0  0
   -3.9887  -25.6651   27.1808 Br  0  0  0  0  0  0  0  0  0  0  0  0
  1  2  1  0
  2  3  2  0
  3  4  1  0
  4  5  2  0
  5  6  1  0
  6  7  1  0
  7  8  1  0
  8  9  1  0
  9 10  1  0
 10 11  1  0
 11 12  1  0
 12 13  1  1
  5 14  1  0
 14 15  2  0
 15 16  1  0
 15  2  1  0
 12  7  1  0
M  END
>  <inchikey>  (258) 
XVVIXSLHTAYMOG-UHFFFAOYSA-N

>  <tags>  (258) 
fragmenstein_placed,CpKRS_FrAncestor_bulkdock_iter2

>  <ref_pdb>  (258) 
x0540b

>  <energy_score>  (258) 
-34.71016

>  <distance_score>  (258) 
0.470829

>  <HIPPO Pose ID>  (258) 
53670

>  <ref_mols>  (258) 
x0675b

>  <smiles>  (258) 
Cc1ccc(CN2CCOCC2C)cc1Br

>  <HIPPO Compound ID>  (258) 
139910

>  <alias>  (258) 
XVVIXSLHTAYMOG-UHFFFAOYSA-N-P60

>  <subsites>  (258) 


>  <placement_batch>  (258) 
CpKRS_FrAncestor_bulkdock_iter2

>  <name>  (258) 
XVVIXSLHTAYMOG-UHFFFAOYSA-N-P60

$$$$
SBMPTOIDPMDZIH-UHFFFAOYSA-N-P60
     RDKit          3D

 16 17  0  0  0  0  0  0  0  0999 V2000
   -2.6435  -23.2306   25.6051 C   0  0  0  0  0  0  0  0  0  0  0  0
   -2.2870  -24.6052   25.1271 C   0  0  0  0  0  0  0  0  0  0  0  0
   -1.3950  -24.7611   24.0571 C   0  0  0  0  0  0  0  0  0  0  0  0
   -1.1632  -26.0213   23.5024 C   0  0  0  0  0  0  0  0  0  0  0  0
   -1.8396  -27.1453   23.9909 C   0  0  0  0  0  0  0  0  0  0  0  0
   -1.7112  -28.4817   23.2917 C   0  0  0  0  0  0  0  0  0  0  0  0
   -0.5007  -29.2370   23.6484 N   0  0  0  0  0  0  0  0  0  0  0  0
   -0.5210  -29.6970   25.0465 C   0  0  0  0  0  0  0  0  0  0  0  0
   -1.4924  -30.8592   25.3232 C   0  0  0  0  0  0  0  0  0  0  0  0
   -1.4937  -31.8792   24.3165 O   0  0  0  0  0  0  0  0  0  0  0  0
   -0.3608  -31.7780   23.4486 C   0  0  0  0  0  0  0  0  0  0  0  0
   -0.3429  -30.4049   22.7346 C   0  0  2  0  0  0  0  0  0  0  0  0
    0.9592  -30.2332   21.9534 C   0  0  0  0  0  0  0  0  0  0  0  0
   -2.6665  -27.0012   25.1142 C   0  0  0  0  0  0  0  0  0  0  0  0
   -2.8672  -25.7464   25.6911 C   0  0  0  0  0  0  0  0  0  0  0  0
   -3.8627  -25.6439   27.0996 Cl  0  0  0  0  0  0  0  0  0  0  0  0
  1  2  1  0
  2  3  2  0
  3  4  1  0
  4  5  2  0
  5  6  1  0
  6  7  1  0
  7  8  1  0
  8  9  1  0
  9 10  1  0
 10 11  1  0
 11 12  1  0
 12 13  1  1
  5 14  1  0
 14 15  2  0
 15 16  1  0
 15  2  1  0
 12  7  1  0
M  END
>  <inchikey>  (259) 
SBMPTOIDPMDZIH-UHFFFAOYSA-N

>  <tags>  (259) 
fragmenstein_placed,CpKRS_FrAncestor_bulkdock_iter2

>  <ref_pdb>  (259) 
x0540b

>  <energy_score>  (259) 
-34.021744

>  <distance_score>  (259) 
0.459511

>  <HIPPO Pose ID>  (259) 
53672

>  <ref_mols>  (259) 
x0675b

>  <smiles>  (259) 
Cc1ccc(CN2CCOCC2C)cc1Cl

>  <HIPPO Compound ID>  (259) 
139935

>  <alias>  (259) 
SBMPTOIDPMDZIH-UHFFFAOYSA-N-P60

>  <subsites>  (259) 


>  <placement_batch>  (259) 
CpKRS_FrAncestor_bulkdock_iter2

>  <name>  (259) 
SBMPTOIDPMDZIH-UHFFFAOYSA-N-P60

$$$$
QDBAAQYFXRCLDG-UHFFFAOYSA-N-P60
     RDKit          3D

 16 17  0  0  0  0  0  0  0  0999 V2000
   -2.6412  -23.1343   25.5035 C   0  0  0  0  0  0  0  0  0  0  0  0
   -2.3481  -24.5657   25.1591 C   0  0  0  0  0  0  0  0  0  0  0  0
   -1.3672  -24.8334   24.1987 C   0  0  0  0  0  0  0  0  0  0  0  0
   -1.1806  -26.1244   23.7201 C   0  0  0  0  0  0  0  0  0  0  0  0
   -1.9904  -27.1804   24.1673 C   0  0  0  0  0  0  0  0  0  0  0  0
   -1.8739  -28.5011   23.4248 C   0  0  0  0  0  0  0  0  0  0  0  0
   -0.6836  -29.2982   23.7608 N   0  0  0  0  0  0  0  0  0  0  0  0
   -0.7120  -29.8403   25.1299 C   0  0  0  0  0  0  0  0  0  0  0  0
   -1.4565  -31.1791   25.2398 C   0  0  0  0  0  0  0  0  0  0  0  0
   -0.9184  -32.2109   24.4040 O   0  0  0  0  0  0  0  0  0  0  0  0
   -0.0300  -31.7117   23.3943 C   0  0  0  0  0  0  0  0  0  0  0  0
   -0.5430  -30.4025   22.7764 C   0  0  0  0  0  0  0  0  0  0  0  0
   -2.9140  -26.9466   25.2176 C   0  0  0  0  0  0  0  0  0  0  0  0
   -3.8156  -28.0431   25.7361 C   0  0  0  0  0  0  0  0  0  0  0  0
   -3.0799  -25.6289   25.7270 C   0  0  0  0  0  0  0  0  0  0  0  0
   -4.0491  -25.3770   26.8591 C   0  0  0  0  0  0  0  0  0  0  0  0
  1  2  1  0
  2  3  2  0
  3  4  1  0
  4  5  2  0
  5  6  1  0
  6  7  1  0
  7  8  1  0
  8  9  1  0
  9 10  1  0
 10 11  1  0
 11 12  1  0
  5 13  1  0
 13 14  1  0
 13 15  2  0
 15 16  1  0
 15  2  1  0
 12  7  1  0
M  END
>  <inchikey>  (260) 
QDBAAQYFXRCLDG-UHFFFAOYSA-N

>  <tags>  (260) 
fragmenstein_placed,CpKRS_FrAncestor_bulkdock_iter2

>  <ref_pdb>  (260) 
x0540b

>  <energy_score>  (260) 
-27.693737

>  <distance_score>  (260) 
0.585183

>  <HIPPO Pose ID>  (260) 
53674

>  <ref_mols>  (260) 
x0675b

>  <smiles>  (260) 
Cc1ccc(CN2CCOCC2)c(C)c1C

>  <HIPPO Compound ID>  (260) 
142065

>  <alias>  (260) 
QDBAAQYFXRCLDG-UHFFFAOYSA-N-P60

>  <subsites>  (260) 


>  <placement_batch>  (260) 
CpKRS_FrAncestor_bulkdock_iter2

>  <name>  (260) 
QDBAAQYFXRCLDG-UHFFFAOYSA-N-P60

$$$$
LSLWHUWVDDMYPJ-UHFFFAOYSA-N-P60
     RDKit          3D

 17 18  0  0  0  0  0  0  0  0999 V2000
   -2.6562  -23.2917   25.7242 C   0  0  0  0  0  0  0  0  0  0  0  0
   -2.3256  -24.6629   25.2150 C   0  0  0  0  0  0  0  0  0  0  0  0
   -1.3943  -24.8063   24.1764 C   0  0  0  0  0  0  0  0  0  0  0  0
   -1.1658  -26.0515   23.5930 C   0  0  0  0  0  0  0  0  0  0  0  0
   -1.8829  -27.1718   24.0242 C   0  0  0  0  0  0  0  0  0  0  0  0
   -1.7558  -28.4935   23.2890 C   0  0  0  0  0  0  0  0  0  0  0  0
   -0.5052  -29.2203   23.5565 N   0  0  0  0  0  0  0  0  0  0  0  0
   -0.4060  -29.5984   24.9795 C   0  0  0  0  0  0  0  0  0  0  0  0
   -1.3858  -30.7128   25.3961 C   0  0  0  0  0  0  0  0  0  0  0  0
   -1.5752  -31.7171   24.3895 O   0  0  0  0  0  0  0  0  0  0  0  0
   -0.4497  -31.7776   23.5074 C   0  0  0  0  0  0  0  0  0  0  0  0
   -0.2907  -30.4416   22.7045 C   0  0  0  0  0  0  0  0  0  0  0  0
    1.1683  -30.3606   22.2060 C   0  0  0  0  0  0  0  0  0  0  0  0
   -1.1868  -30.5393   21.4465 C   0  0  0  0  0  0  0  0  0  0  0  0
   -2.7533  -27.0412   25.1176 C   0  0  0  0  0  0  0  0  0  0  0  0
   -2.9600  -25.8017   25.7397 C   0  0  0  0  0  0  0  0  0  0  0  0
   -3.8953  -25.7048   26.9124 C   0  0  0  0  0  0  0  0  0  0  0  0
  1  2  1  0
  2  3  2  0
  3  4  1  0
  4  5  2  0
  5  6  1  0
  6  7  1  0
  7  8  1  0
  8  9  1  0
  9 10  1  0
 10 11  1  0
 11 12  1  0
 12 13  1  0
 12 14  1  0
  5 15  1  0
 15 16  2  0
 16 17  1  0
 16  2  1  0
 12  7  1  0
M  END
>  <inchikey>  (261) 
LSLWHUWVDDMYPJ-UHFFFAOYSA-N

>  <tags>  (261) 
fragmenstein_placed,CpKRS_FrAncestor_bulkdock_iter2

>  <ref_pdb>  (261) 
x0540b

>  <energy_score>  (261) 
-38.885527

>  <distance_score>  (261) 
0.484372

>  <HIPPO Pose ID>  (261) 
53678

>  <ref_mols>  (261) 
x0675b

>  <smiles>  (261) 
Cc1ccc(CN2CCOCC2(C)C)cc1C

>  <HIPPO Compound ID>  (261) 
447641

>  <alias>  (261) 
LSLWHUWVDDMYPJ-UHFFFAOYSA-N-P60

>  <subsites>  (261) 


>  <placement_batch>  (261) 
CpKRS_FrAncestor_bulkdock_iter2

>  <name>  (261) 
LSLWHUWVDDMYPJ-UHFFFAOYSA-N-P60

$$$$
IDMBPFQMIZIMAR-ZDUSSCGKSA-N-P60
     RDKit          3D

 16 17  0  0  0  0  0  0  0  0999 V2000
   -2.6637  -23.2764   25.7206 C   0  0  0  0  0  0  0  0  0  0  0  0
   -2.3277  -24.6467   25.2133 C   0  0  0  0  0  0  0  0  0  0  0  0
   -1.3752  -24.7895   24.1941 C   0  0  0  0  0  0  0  0  0  0  0  0
   -1.1323  -26.0341   23.6152 C   0  0  0  0  0  0  0  0  0  0  0  0
   -1.8592  -27.1539   24.0283 C   0  0  0  0  0  0  0  0  0  0  0  0
   -1.7157  -28.4724   23.2993 C   0  0  0  0  0  0  0  0  0  0  0  0
   -0.5368  -29.2630   23.6881 N   0  0  0  0  0  0  0  0  0  0  0  0
   -0.6106  -29.7359   25.0796 C   0  0  0  0  0  0  0  0  0  0  0  0
   -1.5700  -30.9185   25.2950 C   0  0  0  0  0  0  0  0  0  0  0  0
   -1.4391  -31.9727   24.3329 O   0  0  0  0  0  0  0  0  0  0  0  0
   -0.3098  -31.7900   23.4724 C   0  0  0  0  0  0  0  0  0  0  0  0
   -0.3745  -30.4181   22.7612 C   0  0  2  0  0  0  0  0  0  0  0  0
    0.8860  -30.1941   21.9269 C   0  0  0  0  0  0  0  0  0  0  0  0
   -2.7530  -27.0238   25.1033 C   0  0  0  0  0  0  0  0  0  0  0  0
   -2.9712  -25.7860   25.7245 C   0  0  0  0  0  0  0  0  0  0  0  0
   -3.9237  -25.6922   26.8832 C   0  0  0  0  0  0  0  0  0  0  0  0
  1  2  1  0
  2  3  2  0
  3  4  1  0
  4  5  2  0
  5  6  1  0
  6  7  1  0
  7  8  1  0
  8  9  1  0
  9 10  1  0
 10 11  1  0
 11 12  1  0
 12 13  1  1
  5 14  1  0
 14 15  2  0
 15 16  1  0
 15  2  1  0
 12  7  1  0
M  END
>  <inchikey>  (262) 
IDMBPFQMIZIMAR-UHFFFAOYSA-N

>  <tags>  (262) 
fragmenstein_placed,CpKRS_FrAncestor_bulkdock_iter2

>  <ref_pdb>  (262) 
x0540b

>  <energy_score>  (262) 
-26.700853

>  <distance_score>  (262) 
0.472829

>  <HIPPO Pose ID>  (262) 
53688

>  <ref_mols>  (262) 
x0675b

>  <smiles>  (262) 
Cc1ccc(CN2CCOC[C@@H]2C)cc1C

>  <HIPPO Compound ID>  (262) 
139916

>  <alias>  (262) 
IDMBPFQMIZIMAR-ZDUSSCGKSA-N-P60

>  <subsites>  (262) 


>  <placement_batch>  (262) 
CpKRS_FrAncestor_bulkdock_iter2

>  <name>  (262) 
IDMBPFQMIZIMAR-ZDUSSCGKSA-N-P60

$$$$
LPEQGRYTPBKPKQ-UHFFFAOYSA-N-P63
     RDKit          3D

 17 18  0  0  0  0  0  0  0  0999 V2000
   -1.1411  -14.7295   26.3308 C   0  0  0  0  0  0  0  0  0  0  0  0
    0.0586  -14.7353   26.3790 C   0  0  0  0  0  0  0  0  0  0  0  0
    1.4864  -14.7350   26.3099 C   0  0  0  0  0  0  0  0  0  0  0  0
    2.2952  -15.6430   26.9511 C   0  0  0  0  0  0  0  0  0  0  0  0
    3.9475  -15.4205   26.5486 S   0  0  0  0  0  0  0  0  0  0  0  0
    3.5858  -14.1343   25.4703 C   0  0  0  0  0  0  0  0  0  0  0  0
    4.6678  -13.4686   24.7235 C   0  0  0  0  0  0  0  0  0  0  0  0
    5.7588  -13.4702   25.1313 O   0  0  0  0  0  0  0  0  0  0  0  0
    4.0632  -12.7655   23.4942 N   0  0  0  0  0  0  0  0  0  0  0  0
    4.6481  -11.8475   22.5693 C   0  0  0  0  0  0  0  0  0  0  0  0
    4.5284  -10.4705   23.1439 C   0  0  0  0  0  0  0  0  0  0  0  0
    3.9083  -10.0567   24.3068 C   0  0  0  0  0  0  0  0  0  0  0  0
    4.2381   -8.7486   24.4869 N   0  0  0  0  0  0  0  0  0  0  0  0
    4.7876   -8.2073   23.3971 N   0  0  0  0  0  0  0  0  0  0  0  0
    5.0190   -9.2572   22.6013 C   0  0  0  0  0  0  0  0  0  0  0  0
    5.6757   -9.0589   21.3019 C   0  0  0  0  0  0  0  0  0  0  0  0
    2.2332  -13.8318   25.5059 C   0  0  0  0  0  0  0  0  0  0  0  0
  1  2  3  0
  2  3  1  0
  3  4  2  0
  4  5  1  0
  5  6  1  0
  6  7  1  0
  7  8  2  0
  7  9  1  0
  9 10  1  0
 10 11  1  0
 11 12  2  0
 12 13  1  0
 13 14  1  0
 14 15  2  0
 15 16  1  0
  6 17  2  0
 17  3  1  0
 15 11  1  0
M  END
>  <inchikey>  (263) 
LPEQGRYTPBKPKQ-UHFFFAOYSA-N

>  <tags>  (263) 
fragmenstein_placed,CpKRS_FrAncestor_bulkdock_iter2

>  <ref_pdb>  (263) 
x0540b

>  <energy_score>  (263) 
-4.2411

>  <distance_score>  (263) 
0.769751

>  <HIPPO Pose ID>  (263) 
54058

>  <ref_mols>  (263) 
x0787a

>  <smiles>  (263) 
C#Cc1csc(C(=O)NCc2c[nH]nc2C)c1

>  <HIPPO Compound ID>  (263) 
150736

>  <alias>  (263) 
LPEQGRYTPBKPKQ-UHFFFAOYSA-N-P63

>  <subsites>  (263) 


>  <placement_batch>  (263) 
CpKRS_FrAncestor_bulkdock_iter2

>  <name>  (263) 
LPEQGRYTPBKPKQ-UHFFFAOYSA-N-P63

$$$$
DGOXACPQHCDZRB-UHFFFAOYSA-N-P64
     RDKit          3D

 16 17  0  0  0  0  0  0  0  0999 V2000
    1.0370  -14.5549   29.0148 C   0  0  0  0  0  0  0  0  0  0  0  0
    1.7550  -14.4809   28.0574 C   0  0  0  0  0  0  0  0  0  0  0  0
    2.7720  -14.5630   27.0635 C   0  0  0  0  0  0  0  0  0  0  0  0
    3.7104  -15.5597   27.1597 C   0  0  0  0  0  0  0  0  0  0  0  0
    4.8886  -15.4476   25.9503 S   0  0  0  0  0  0  0  0  0  0  0  0
    4.1290  -14.0765   25.2194 C   0  0  0  0  0  0  0  0  0  0  0  0
    4.7473  -13.5679   23.9746 C   0  0  0  0  0  0  0  0  0  0  0  0
    5.4810  -14.2623   23.3998 O   0  0  0  0  0  0  0  0  0  0  0  0
    4.2309  -12.1652   23.6303 N   0  0  0  0  0  0  0  0  0  0  0  0
    4.4327  -11.3598   22.4630 C   0  0  0  0  0  0  0  0  0  0  0  0
    4.9315  -10.0002   22.7688 C   0  0  0  0  0  0  0  0  0  0  0  0
    4.9093   -8.8869   21.8962 C   0  0  0  0  0  0  0  0  0  0  0  0
    5.4006   -7.7754   22.4477 N   0  0  0  0  0  0  0  0  0  0  0  0
    5.8673   -8.1998   23.6364 N   0  0  0  0  0  0  0  0  0  0  0  0
    5.5802   -9.5103   23.8794 C   0  0  0  0  0  0  0  0  0  0  0  0
    2.9967  -13.7084   25.9388 C   0  0  0  0  0  0  0  0  0  0  0  0
  1  2  3  0
  2  3  1  0
  3  4  2  0
  4  5  1  0
  5  6  1  0
  6  7  1  0
  7  8  2  0
  7  9  1  0
  9 10  1  0
 10 11  1  0
 11 12  1  0
 12 13  2  0
 13 14  1  0
 14 15  1  0
  6 16  2  0
 16  3  1  0
 15 11  2  0
M  END
>  <inchikey>  (264) 
DGOXACPQHCDZRB-UHFFFAOYSA-N

>  <tags>  (264) 
fragmenstein_placed,CpKRS_FrAncestor_bulkdock_iter2

>  <ref_pdb>  (264) 
x0540b

>  <energy_score>  (264) 
-2.104984

>  <distance_score>  (264) 
0.705364

>  <HIPPO Pose ID>  (264) 
54061

>  <ref_mols>  (264) 
x0787b

>  <smiles>  (264) 
C#Cc1csc(C(=O)NCc2cn[nH]c2)c1

>  <HIPPO Compound ID>  (264) 
128319

>  <alias>  (264) 
DGOXACPQHCDZRB-UHFFFAOYSA-N-P64

>  <subsites>  (264) 


>  <placement_batch>  (264) 
CpKRS_FrAncestor_bulkdock_iter2

>  <name>  (264) 
DGOXACPQHCDZRB-UHFFFAOYSA-N-P64

$$$$
ZBAGAWDYXGDBKX-UHFFFAOYSA-N-P64
     RDKit          3D

 17 18  0  0  0  0  0  0  0  0999 V2000
    0.9948  -14.5772   29.1985 C   0  0  0  0  0  0  0  0  0  0  0  0
    1.7149  -14.5048   28.2429 C   0  0  0  0  0  0  0  0  0  0  0  0
    2.7396  -14.6265   27.2633 C   0  0  0  0  0  0  0  0  0  0  0  0
    3.5577  -15.7275   27.3150 C   0  0  0  0  0  0  0  0  0  0  0  0
    4.7952  -15.6557   26.1671 S   0  0  0  0  0  0  0  0  0  0  0  0
    4.2170  -14.1640   25.5178 C   0  0  0  0  0  0  0  0  0  0  0  0
    4.9285  -13.6636   24.3302 C   0  0  0  0  0  0  0  0  0  0  0  0
    5.4929  -14.4437   23.6793 O   0  0  0  0  0  0  0  0  0  0  0  0
    4.7033  -12.1612   24.1100 N   0  0  0  0  0  0  0  0  0  0  0  0
    5.0427  -11.3224   22.9986 C   0  0  1  0  0  0  0  0  0  0  0  0
    4.0358  -11.6040   21.9088 C   0  0  0  0  0  0  0  0  0  0  0  0
    5.2040   -9.8724   23.2813 C   0  0  0  0  0  0  0  0  0  0  0  0
    6.1220   -9.2509   24.1549 C   0  0  0  0  0  0  0  0  0  0  0  0
    6.1067   -7.9212   24.0718 N   0  0  0  0  0  0  0  0  0  0  0  0
    5.2406   -7.6764   23.0956 N   0  0  0  0  0  0  0  0  0  0  0  0
    4.6568   -8.7985   22.5980 C   0  0  0  0  0  0  0  0  0  0  0  0
    3.0960  -13.7261   26.2105 C   0  0  0  0  0  0  0  0  0  0  0  0
  1  2  3  0
  2  3  1  0
  3  4  2  0
  4  5  1  0
  5  6  1  0
  6  7  1  0
  7  8  2  0
  7  9  1  0
  9 10  1  0
 10 11  1  6
 10 12  1  0
 12 13  1  0
 13 14  2  0
 14 15  1  0
 15 16  1  0
  6 17  2  0
 17  3  1  0
 16 12  2  0
M  END
>  <inchikey>  (265) 
ZBAGAWDYXGDBKX-UHFFFAOYSA-N

>  <tags>  (265) 
fragmenstein_placed,CpKRS_FrAncestor_bulkdock_iter2

>  <ref_pdb>  (265) 
x0540b

>  <energy_score>  (265) 
-8.017084

>  <distance_score>  (265) 
0.867734

>  <HIPPO Pose ID>  (265) 
54063

>  <ref_mols>  (265) 
x0787b

>  <smiles>  (265) 
C#Cc1csc(C(=O)NC(C)c2cn[nH]c2)c1

>  <HIPPO Compound ID>  (265) 
449111

>  <alias>  (265) 
ZBAGAWDYXGDBKX-UHFFFAOYSA-N-P64

>  <subsites>  (265) 


>  <placement_batch>  (265) 
CpKRS_FrAncestor_bulkdock_iter2

>  <name>  (265) 
ZBAGAWDYXGDBKX-UHFFFAOYSA-N-P64

$$$$
AFTPHBIICKRLSE-UHFFFAOYSA-N-P48
     RDKit          3D

 16 16  0  0  0  0  0  0  0  0999 V2000
   -1.1886  -14.4021   26.1489 C   0  0  0  0  0  0  0  0  0  0  0  0
   -0.1642  -14.1580   27.2468 C   0  0  0  0  0  0  0  0  0  0  0  0
    1.2404  -14.1756   26.7463 C   0  0  0  0  0  0  0  0  0  0  0  0
    2.1378  -15.0664   27.1016 N   0  0  0  0  0  0  0  0  0  0  0  0
    3.3448  -14.8102   26.4659 C   0  0  0  0  0  0  0  0  0  0  0  0
    4.4883  -15.7107   26.7627 C   0  0  0  0  0  0  0  0  0  0  0  0
    3.3264  -13.7387   25.5845 C   0  0  0  0  0  0  0  0  0  0  0  0
    4.4091  -13.2227   24.7421 C   0  0  0  0  0  0  0  0  0  0  0  0
    5.5132  -13.5143   24.9688 O   0  0  0  0  0  0  0  0  0  0  0  0
    3.8234  -12.3080   23.6527 N   0  0  0  0  0  0  0  0  0  0  0  0
    4.4673  -11.6302   22.5477 C   0  0  0  0  0  0  0  0  0  0  0  0
    4.4931  -10.1103   22.6761 C   0  0  0  0  0  0  0  0  0  0  0  0
    5.1526   -9.5466   21.6404 F   0  0  0  0  0  0  0  0  0  0  0  0
    5.0842   -9.6932   23.8158 F   0  0  0  0  0  0  0  0  0  0  0  0
    3.2362   -9.5892   22.6727 F   0  0  0  0  0  0  0  0  0  0  0  0
    1.7783  -12.9980   25.6330 S   0  0  0  0  0  0  0  0  0  0  0  0
  1  2  1  0
  2  3  1  0
  3  4  2  0
  4  5  1  0
  5  6  1  0
  5  7  2  0
  7  8  1  0
  8  9  2  0
  8 10  1  0
 10 11  1  0
 11 12  1  0
 12 13  1  0
 12 14  1  0
 12 15  1  0
  7 16  1  0
 16  3  1  0
M  END
>  <inchikey>  (266) 
AFTPHBIICKRLSE-UHFFFAOYSA-N

>  <tags>  (266) 
fragmenstein_placed,CpKRS_FrAncestor_bulkdock_iter2

>  <ref_pdb>  (266) 
x0540b

>  <energy_score>  (266) 
-67.560345

>  <distance_score>  (266) 
0.481083

>  <HIPPO Pose ID>  (266) 
54077

>  <ref_mols>  (266) 
x0504a

>  <smiles>  (266) 
CCc1nc(C)c(C(=O)NCC(F)(F)F)s1

>  <HIPPO Compound ID>  (266) 
121096

>  <alias>  (266) 
AFTPHBIICKRLSE-UHFFFAOYSA-N-P48

>  <subsites>  (266) 


>  <placement_batch>  (266) 
CpKRS_FrAncestor_bulkdock_iter2

>  <name>  (266) 
AFTPHBIICKRLSE-UHFFFAOYSA-N-P48

$$$$
VOJLQJGDHPIRSL-ZCFIWIBFSA-N-P48
     RDKit          3D

 17 17  0  0  0  0  0  0  0  0999 V2000
   -1.2074  -14.4937   26.3563 C   0  0  0  0  0  0  0  0  0  0  0  0
   -0.1631  -14.2784   27.4441 C   0  0  0  0  0  0  0  0  0  0  0  0
    1.2210  -14.2173   26.9030 C   0  0  0  0  0  0  0  0  0  0  0  0
    2.1682  -15.0892   27.1614 N   0  0  0  0  0  0  0  0  0  0  0  0
    3.3372  -14.7344   26.4977 C   0  0  0  0  0  0  0  0  0  0  0  0
    4.5280  -15.6045   26.6784 C   0  0  0  0  0  0  0  0  0  0  0  0
    3.2342  -13.6010   25.7040 C   0  0  0  0  0  0  0  0  0  0  0  0
    4.2343  -12.9647   24.8448 C   0  0  0  0  0  0  0  0  0  0  0  0
    5.3500  -13.2962   24.8837 O   0  0  0  0  0  0  0  0  0  0  0  0
    3.5316  -11.9285   23.9469 N   0  0  0  0  0  0  0  0  0  0  0  0
    4.0387  -11.1465   22.8375 C   0  0  2  0  0  0  0  0  0  0  0  0
    4.7006  -12.0571   21.8261 C   0  0  0  0  0  0  0  0  0  0  0  0
    4.9494   -9.9851   23.2193 C   0  0  0  0  0  0  0  0  0  0  0  0
    5.3694   -9.3315   22.1096 F   0  0  0  0  0  0  0  0  0  0  0  0
    4.2594   -9.0791   23.9584 F   0  0  0  0  0  0  0  0  0  0  0  0
    6.0267  -10.3516   23.9318 F   0  0  0  0  0  0  0  0  0  0  0  0
    1.6541  -12.9515   25.8547 S   0  0  0  0  0  0  0  0  0  0  0  0
  1  2  1  0
  2  3  1  0
  3  4  2  0
  4  5  1  0
  5  6  1  0
  5  7  2  0
  7  8  1  0
  8  9  2  0
  8 10  1  0
 10 11  1  0
 11 12  1  6
 11 13  1  0
 13 14  1  0
 13 15  1  0
 13 16  1  0
  7 17  1  0
 17  3  1  0
M  END
>  <inchikey>  (267) 
VOJLQJGDHPIRSL-UHFFFAOYSA-N

>  <tags>  (267) 
fragmenstein_placed,CpKRS_FrAncestor_bulkdock_iter2

>  <ref_pdb>  (267) 
x0540b

>  <energy_score>  (267) 
-38.549917

>  <distance_score>  (267) 
0.499643

>  <HIPPO Pose ID>  (267) 
54080

>  <ref_mols>  (267) 
x0504a

>  <smiles>  (267) 
CCc1nc(C)c(C(=O)N[C@H](C)C(F)(F)F)s1

>  <HIPPO Compound ID>  (267) 
145659

>  <alias>  (267) 
VOJLQJGDHPIRSL-ZCFIWIBFSA-N-P48

>  <subsites>  (267) 


>  <placement_batch>  (267) 
CpKRS_FrAncestor_bulkdock_iter2

>  <name>  (267) 
VOJLQJGDHPIRSL-ZCFIWIBFSA-N-P48

$$$$
XWZGBOQUEIEUNJ-UHFFFAOYSA-N-P48
     RDKit          3D

 17 17  0  0  0  0  0  0  0  0999 V2000
   -0.9973  -14.5380   26.6732 C   0  0  0  0  0  0  0  0  0  0  0  0
   -0.0544  -14.4534   27.8734 C   0  0  0  0  0  0  0  0  0  0  0  0
    1.3705  -14.5002   27.4851 C   0  0  0  0  0  0  0  0  0  0  0  0
    2.2448  -15.3891   27.9040 N   0  0  0  0  0  0  0  0  0  0  0  0
    3.4588  -15.1593   27.2851 C   0  0  0  0  0  0  0  0  0  0  0  0
    3.4635  -14.1182   26.3875 C   0  0  0  0  0  0  0  0  0  0  0  0
    4.5002  -13.6845   25.4807 C   0  0  0  0  0  0  0  0  0  0  0  0
    5.6224  -13.9517   25.6293 O   0  0  0  0  0  0  0  0  0  0  0  0
    3.7960  -12.9512   24.3313 N   0  0  0  0  0  0  0  0  0  0  0  0
    4.3097  -12.4714   23.0695 C   0  0  0  0  0  0  0  0  0  0  0  0
    3.1253  -12.5316   22.1206 C   0  0  0  0  0  0  0  0  0  0  0  0
    5.3257  -13.4810   22.5389 C   0  0  0  0  0  0  0  0  0  0  0  0
    4.7732  -10.9860   23.1037 C   0  0  0  0  0  0  0  0  0  0  0  0
    5.2296  -10.5633   21.8987 F   0  0  0  0  0  0  0  0  0  0  0  0
    3.7258  -10.1644   23.4101 F   0  0  0  0  0  0  0  0  0  0  0  0
    5.7235  -10.7235   24.0189 F   0  0  0  0  0  0  0  0  0  0  0  0
    1.9411  -13.3339   26.3983 S   0  0  0  0  0  0  0  0  0  0  0  0
  1  2  1  0
  2  3  1  0
  3  4  2  0
  4  5  1  0
  5  6  2  0
  6  7  1  0
  7  8  2  0
  7  9  1  0
  9 10  1  0
 10 11  1  0
 10 12  1  0
 10 13  1  0
 13 14  1  0
 13 15  1  0
 13 16  1  0
  6 17  1  0
 17  3  1  0
M  END
>  <inchikey>  (268) 
XWZGBOQUEIEUNJ-UHFFFAOYSA-N

>  <tags>  (268) 
fragmenstein_placed,CpKRS_FrAncestor_bulkdock_iter2

>  <ref_pdb>  (268) 
x0540b

>  <energy_score>  (268) 
-35.946298

>  <distance_score>  (268) 
0.807217

>  <HIPPO Pose ID>  (268) 
54086

>  <ref_mols>  (268) 
x0504a

>  <smiles>  (268) 
CCc1ncc(C(=O)NC(C)(C)C(F)(F)F)s1

>  <HIPPO Compound ID>  (268) 
151429

>  <alias>  (268) 
XWZGBOQUEIEUNJ-UHFFFAOYSA-N-P48

>  <subsites>  (268) 


>  <placement_batch>  (268) 
CpKRS_FrAncestor_bulkdock_iter2

>  <name>  (268) 
XWZGBOQUEIEUNJ-UHFFFAOYSA-N-P48

$$$$
WEPNFOCAZHTSFK-UHFFFAOYSA-N-P48
     RDKit          3D

 15 15  0  0  0  0  0  0  0  0999 V2000
    0.9880  -15.1459   29.7489 C   0  0  0  0  0  0  0  0  0  0  0  0
    0.6784  -14.5197   28.3954 C   0  0  0  0  0  0  0  0  0  0  0  0
    1.8613  -14.5445   27.4838 C   0  0  0  0  0  0  0  0  0  0  0  0
    2.8812  -15.3626   27.6214 N   0  0  0  0  0  0  0  0  0  0  0  0
    3.8634  -15.0260   26.7169 C   0  0  0  0  0  0  0  0  0  0  0  0
    3.5649  -13.9913   25.8516 C   0  0  0  0  0  0  0  0  0  0  0  0
    4.4702  -13.4020   24.8677 C   0  0  0  0  0  0  0  0  0  0  0  0
    5.6056  -13.6465   24.9337 O   0  0  0  0  0  0  0  0  0  0  0  0
    3.6987  -12.5185   23.8769 N   0  0  0  0  0  0  0  0  0  0  0  0
    4.1500  -11.8180   22.6908 C   0  0  0  0  0  0  0  0  0  0  0  0
    4.2619  -10.2999   22.8187 C   0  0  0  0  0  0  0  0  0  0  0  0
    3.0348   -9.7162   22.8826 F   0  0  0  0  0  0  0  0  0  0  0  0
    4.9434   -9.9067   23.9147 F   0  0  0  0  0  0  0  0  0  0  0  0
    4.8856   -9.7677   21.7414 F   0  0  0  0  0  0  0  0  0  0  0  0
    1.9618  -13.4596   26.1503 S   0  0  0  0  0  0  0  0  0  0  0  0
  1  2  1  0
  2  3  1  0
  3  4  2  0
  4  5  1  0
  5  6  2  0
  6  7  1  0
  7  8  2  0
  7  9  1  0
  9 10  1  0
 10 11  1  0
 11 12  1  0
 11 13  1  0
 11 14  1  0
  6 15  1  0
 15  3  1  0
M  END
>  <inchikey>  (269) 
WEPNFOCAZHTSFK-UHFFFAOYSA-N

>  <tags>  (269) 
fragmenstein_placed,CpKRS_FrAncestor_bulkdock_iter2

>  <ref_pdb>  (269) 
x0540b

>  <energy_score>  (269) 
-15.180769

>  <distance_score>  (269) 
0.501027

>  <HIPPO Pose ID>  (269) 
54092

>  <ref_mols>  (269) 
x0504a

>  <smiles>  (269) 
CCc1ncc(C(=O)NCC(F)(F)F)s1

>  <HIPPO Compound ID>  (269) 
449116

>  <alias>  (269) 
WEPNFOCAZHTSFK-UHFFFAOYSA-N-P48

>  <subsites>  (269) 


>  <placement_batch>  (269) 
CpKRS_FrAncestor_bulkdock_iter2

>  <name>  (269) 
WEPNFOCAZHTSFK-UHFFFAOYSA-N-P48

$$$$
FLFMQYQZMBIJOT-RXMQYKEDSA-N-P48
     RDKit          3D

 16 16  0  0  0  0  0  0  0  0999 V2000
   -1.1160  -14.5573   26.4502 C   0  0  0  0  0  0  0  0  0  0  0  0
   -0.0689  -14.3117   27.5313 C   0  0  0  0  0  0  0  0  0  0  0  0
    1.3075  -14.2032   26.9744 C   0  0  0  0  0  0  0  0  0  0  0  0
    2.3105  -15.0012   27.2705 N   0  0  0  0  0  0  0  0  0  0  0  0
    3.4397  -14.5970   26.5743 C   0  0  0  0  0  0  0  0  0  0  0  0
    3.2626  -13.5282   25.7189 C   0  0  0  0  0  0  0  0  0  0  0  0
    4.2230  -12.8926   24.8255 C   0  0  0  0  0  0  0  0  0  0  0  0
    5.3655  -13.0862   24.9371 O   0  0  0  0  0  0  0  0  0  0  0  0
    3.4511  -12.0407   23.8020 N   0  0  0  0  0  0  0  0  0  0  0  0
    3.9168  -11.3201   22.6372 C   0  0  2  0  0  0  0  0  0  0  0  0
    5.0532  -12.0492   21.9570 C   0  0  0  0  0  0  0  0  0  0  0  0
    4.2846   -9.8551   22.8827 C   0  0  0  0  0  0  0  0  0  0  0  0
    5.1312   -9.6781   23.9141 F   0  0  0  0  0  0  0  0  0  0  0  0
    4.8467   -9.2988   21.7840 F   0  0  0  0  0  0  0  0  0  0  0  0
    3.1669   -9.1188   23.1476 F   0  0  0  0  0  0  0  0  0  0  0  0
    1.6516  -12.9674   25.8514 S   0  0  0  0  0  0  0  0  0  0  0  0
  1  2  1  0
  2  3  1  0
  3  4  2  0
  4  5  1  0
  5  6  2  0
  6  7  1  0
  7  8  2  0
  7  9  1  0
  9 10  1  0
 10 11  1  1
 10 12  1  0
 12 13  1  0
 12 14  1  0
 12 15  1  0
  6 16  1  0
 16  3  1  0
M  END
>  <inchikey>  (270) 
FLFMQYQZMBIJOT-UHFFFAOYSA-N

>  <tags>  (270) 
fragmenstein_placed,CpKRS_FrAncestor_bulkdock_iter2

>  <ref_pdb>  (270) 
x0540b

>  <energy_score>  (270) 
-49.791219

>  <distance_score>  (270) 
0.504671

>  <HIPPO Pose ID>  (270) 
54095

>  <ref_mols>  (270) 
x0504a

>  <smiles>  (270) 
CCc1ncc(C(=O)N[C@H](C)C(F)(F)F)s1

>  <HIPPO Compound ID>  (270) 
122208

>  <alias>  (270) 
FLFMQYQZMBIJOT-RXMQYKEDSA-N-P48

>  <subsites>  (270) 


>  <placement_batch>  (270) 
CpKRS_FrAncestor_bulkdock_iter2

>  <name>  (270) 
FLFMQYQZMBIJOT-RXMQYKEDSA-N-P48

$$$$
WRDBOVPFRBDAIX-UHFFFAOYSA-N-P33
     RDKit          3D

 17 18  0  0  0  0  0  0  0  0999 V2000
    1.2914  -14.7092   28.8193 C   0  0  0  0  0  0  0  0  0  0  0  0
    1.6578  -14.0978   27.4587 C   0  0  0  0  0  0  0  0  0  0  0  0
    3.0264  -14.5284   27.0409 C   0  0  0  0  0  0  0  0  0  0  0  0
    3.5972  -15.3601   27.9645 N   0  0  0  0  0  0  0  0  0  0  0  0
    4.8525  -15.7252   27.7455 C   0  0  0  0  0  0  0  0  0  0  0  0
    5.5463  -15.2878   26.6548 C   0  0  0  0  0  0  0  0  0  0  0  0
    4.9912  -14.4923   25.7252 N   0  0  0  0  0  0  0  0  0  0  0  0
    3.6952  -14.1097   25.8724 C   0  0  0  0  0  0  0  0  0  0  0  0
    3.1349  -13.3740   24.8165 N   0  0  0  0  0  0  0  0  0  0  0  0
    4.0189  -13.2595   23.6417 C   0  0  0  0  0  0  0  0  0  0  0  0
    4.6697  -11.8841   23.6400 C   0  0  0  0  0  0  0  0  0  0  0  0
    3.5985  -10.8270   23.3472 C   0  0  0  0  0  0  0  0  0  0  0  0
    3.9650   -9.4038   23.7847 C   0  0  2  0  0  0  0  0  0  0  0  0
    5.4276   -9.0361   23.6133 C   0  0  0  0  0  0  0  0  0  0  0  0
    3.6424   -9.2183   25.0901 F   0  0  0  0  0  0  0  0  0  0  0  0
    2.2177  -11.2595   23.8903 C   0  0  0  0  0  0  0  0  0  0  0  0
    2.3201  -12.1897   25.1091 C   0  0  0  0  0  0  0  0  0  0  0  0
  1  2  1  0
  2  3  1  0
  3  4  2  0
  4  5  1  0
  5  6  2  0
  6  7  1  0
  7  8  2  0
  8  9  1  0
  9 10  1  0
 10 11  1  0
 11 12  1  0
 12 13  1  0
 13 14  1  1
 13 15  1  0
 12 16  1  0
 16 17  1  0
  8  3  1  0
 17  9  1  0
M  END
>  <inchikey>  (271) 
WRDBOVPFRBDAIX-UHFFFAOYSA-N

>  <tags>  (271) 
fragmenstein_placed,CpKRS_FrAncestor_bulkdock_iter2

>  <ref_pdb>  (271) 
x0540b

>  <energy_score>  (271) 
-18.95781

>  <distance_score>  (271) 
0.897113

>  <HIPPO Pose ID>  (271) 
54102

>  <ref_mols>  (271) 
x0489a

>  <smiles>  (271) 
CCc1nccnc1N1CCC(C(C)F)CC1

>  <HIPPO Compound ID>  (271) 
449122

>  <alias>  (271) 
WRDBOVPFRBDAIX-UHFFFAOYSA-N-P33

>  <subsites>  (271) 


>  <placement_batch>  (271) 
CpKRS_FrAncestor_bulkdock_iter2

>  <name>  (271) 
WRDBOVPFRBDAIX-UHFFFAOYSA-N-P33

$$$$
FMKXMMJDSHAERL-UHFFFAOYSA-N-P33
     RDKit          3D

 18 19  0  0  0  0  0  0  0  0999 V2000
    1.2850  -14.7031   28.8162 C   0  0  0  0  0  0  0  0  0  0  0  0
    1.6599  -14.1011   27.4538 C   0  0  0  0  0  0  0  0  0  0  0  0
    3.0300  -14.5388   27.0500 C   0  0  0  0  0  0  0  0  0  0  0  0
    3.5924  -15.3654   27.9829 N   0  0  0  0  0  0  0  0  0  0  0  0
    4.8469  -15.7382   27.7737 C   0  0  0  0  0  0  0  0  0  0  0  0
    5.5497  -15.3091   26.6855 C   0  0  0  0  0  0  0  0  0  0  0  0
    5.0043  -14.5151   25.7494 N   0  0  0  0  0  0  0  0  0  0  0  0
    3.7075  -14.1314   25.8840 C   0  0  0  0  0  0  0  0  0  0  0  0
    3.1574  -13.4065   24.8175 N   0  0  0  0  0  0  0  0  0  0  0  0
    2.3466  -12.2138   25.0815 C   0  0  0  0  0  0  0  0  0  0  0  0
    2.2718  -11.3041   23.8451 C   0  0  0  0  0  0  0  0  0  0  0  0
    3.6690  -10.9033   23.3128 C   0  0  0  0  0  0  0  0  0  0  0  0
    4.0585   -9.4976   23.7573 C   0  0  0  0  0  0  0  0  0  0  0  0
    5.5196   -9.1306   23.6139 C   0  0  0  0  0  0  0  0  0  0  0  0
    3.3309   -8.6202   23.0128 F   0  0  0  0  0  0  0  0  0  0  0  0
    3.6871   -9.2794   25.0417 F   0  0  0  0  0  0  0  0  0  0  0  0
    4.7177  -11.9714   23.6225 C   0  0  0  0  0  0  0  0  0  0  0  0
    4.0405  -13.3296   23.6407 C   0  0  0  0  0  0  0  0  0  0  0  0
  1  2  1  0
  2  3  1  0
  3  4  2  0
  4  5  1  0
  5  6  2  0
  6  7  1  0
  7  8  2  0
  8  9  1  0
  9 10  1  0
 10 11  1  0
 11 12  1  0
 12 13  1  0
 13 14  1  0
 13 15  1  0
 13 16  1  0
 12 17  1  0
 17 18  1  0
  8  3  1  0
 18  9  1  0
M  END
>  <inchikey>  (272) 
FMKXMMJDSHAERL-UHFFFAOYSA-N

>  <tags>  (272) 
fragmenstein_placed,CpKRS_FrAncestor_bulkdock_iter2

>  <ref_pdb>  (272) 
x0540b

>  <energy_score>  (272) 
-19.799147

>  <distance_score>  (272) 
0.869727

>  <HIPPO Pose ID>  (272) 
54103

>  <ref_mols>  (272) 
x0489a

>  <smiles>  (272) 
CCc1nccnc1N1CCC(C(C)(F)F)CC1

>  <HIPPO Compound ID>  (272) 
449123

>  <alias>  (272) 
FMKXMMJDSHAERL-UHFFFAOYSA-N-P33

>  <subsites>  (272) 


>  <placement_batch>  (272) 
CpKRS_FrAncestor_bulkdock_iter2

>  <name>  (272) 
FMKXMMJDSHAERL-UHFFFAOYSA-N-P33

$$$$
KWRGALYPRIEMDR-UHFFFAOYSA-N-P33
     RDKit          3D

 16 17  0  0  0  0  0  0  0  0999 V2000
   -0.0022  -13.5443   25.8675 C   0  0  0  0  0  0  0  0  0  0  0  0
    1.0740  -13.3425   26.9315 C   0  0  0  0  0  0  0  0  0  0  0  0
    2.2854  -14.2270   26.8194 C   0  0  0  0  0  0  0  0  0  0  0  0
    2.2983  -15.2142   27.7774 N   0  0  0  0  0  0  0  0  0  0  0  0
    3.3976  -15.9874   27.8048 C   0  0  0  0  0  0  0  0  0  0  0  0
    4.4451  -15.7931   26.9464 C   0  0  0  0  0  0  0  0  0  0  0  0
    4.4437  -14.8206   26.0234 N   0  0  0  0  0  0  0  0  0  0  0  0
    3.3537  -14.0185   25.9096 C   0  0  0  0  0  0  0  0  0  0  0  0
    3.4503  -13.0146   24.9514 N   0  0  0  0  0  0  0  0  0  0  0  0
    2.2952  -12.3807   24.3286 C   0  0  0  0  0  0  0  0  0  0  0  0
    2.6957  -11.3020   23.3237 C   0  0  0  0  0  0  0  0  0  0  0  0
    3.9389  -10.6117   23.8470 C   0  0  0  0  0  0  0  0  0  0  0  0
    4.2982   -9.3340   23.1326 C   0  0  0  0  0  0  0  0  0  0  0  0
    5.3581   -8.7769   23.7833 F   0  0  0  0  0  0  0  0  0  0  0  0
    5.0915  -11.6130   23.8009 C   0  0  0  0  0  0  0  0  0  0  0  0
    4.6523  -13.0480   24.1136 C   0  0  0  0  0  0  0  0  0  0  0  0
  1  2  1  0
  2  3  1  0
  3  4  2  0
  4  5  1  0
  5  6  2  0
  6  7  1  0
  7  8  2  0
  8  9  1  0
  9 10  1  0
 10 11  1  0
 11 12  1  0
 12 13  1  0
 13 14  1  0
 12 15  1  0
 15 16  1  0
  8  3  1  0
 16  9  1  0
M  END
>  <inchikey>  (273) 
KWRGALYPRIEMDR-UHFFFAOYSA-N

>  <tags>  (273) 
fragmenstein_placed,CpKRS_FrAncestor_bulkdock_iter2

>  <ref_pdb>  (273) 
x0540b

>  <energy_score>  (273) 
-19.180978

>  <distance_score>  (273) 
0.805927

>  <HIPPO Pose ID>  (273) 
54104

>  <ref_mols>  (273) 
x0489a

>  <smiles>  (273) 
CCc1nccnc1N1CCC(CF)CC1

>  <HIPPO Compound ID>  (273) 
133580

>  <alias>  (273) 
KWRGALYPRIEMDR-UHFFFAOYSA-N-P33

>  <subsites>  (273) 


>  <placement_batch>  (273) 
CpKRS_FrAncestor_bulkdock_iter2

>  <name>  (273) 
KWRGALYPRIEMDR-UHFFFAOYSA-N-P33

$$$$
OITRSSVIOGOAIX-UHFFFAOYSA-N-P33
     RDKit          3D

 17 18  0  0  0  0  0  0  0  0999 V2000
    0.0152  -13.5053   25.9003 C   0  0  0  0  0  0  0  0  0  0  0  0
    1.1176  -13.2766   26.9293 C   0  0  0  0  0  0  0  0  0  0  0  0
    2.3305  -14.1587   26.8139 C   0  0  0  0  0  0  0  0  0  0  0  0
    2.3259  -15.1588   27.7589 N   0  0  0  0  0  0  0  0  0  0  0  0
    3.4088  -15.9544   27.7748 C   0  0  0  0  0  0  0  0  0  0  0  0
    4.4614  -15.7649   26.9209 C   0  0  0  0  0  0  0  0  0  0  0  0
    4.4803  -14.7785   26.0106 N   0  0  0  0  0  0  0  0  0  0  0  0
    3.4034  -13.9570   25.9040 C   0  0  0  0  0  0  0  0  0  0  0  0
    3.5115  -12.9592   24.9354 N   0  0  0  0  0  0  0  0  0  0  0  0
    4.6209  -13.1045   23.9958 C   0  0  0  0  0  0  0  0  0  0  0  0
    5.0865  -11.7149   23.5718 C   0  0  0  0  0  0  0  0  0  0  0  0
    3.9782  -10.8089   23.0442 C   0  0  0  0  0  0  0  0  0  0  0  0
    3.9808   -9.4401   23.7100 C   0  0  0  0  0  0  0  0  0  0  0  0
    3.5086   -9.4830   24.9712 F   0  0  0  0  0  0  0  0  0  0  0  0
    5.2467   -8.9569   23.7814 F   0  0  0  0  0  0  0  0  0  0  0  0
    2.6235  -11.4897   23.1358 C   0  0  0  0  0  0  0  0  0  0  0  0
    2.3718  -12.2103   24.4492 C   0  0  0  0  0  0  0  0  0  0  0  0
  1  2  1  0
  2  3  1  0
  3  4  2  0
  4  5  1  0
  5  6  2  0
  6  7  1  0
  7  8  2  0
  8  9  1  0
  9 10  1  0
 10 11  1  0
 11 12  1  0
 12 13  1  0
 13 14  1  0
 13 15  1  0
 12 16  1  0
 16 17  1  0
  8  3  1  0
 17  9  1  0
M  END
>  <inchikey>  (274) 
OITRSSVIOGOAIX-UHFFFAOYSA-N

>  <tags>  (274) 
fragmenstein_placed,CpKRS_FrAncestor_bulkdock_iter2

>  <ref_pdb>  (274) 
x0540b

>  <energy_score>  (274) 
-5.914012

>  <distance_score>  (274) 
0.809837

>  <HIPPO Pose ID>  (274) 
54105

>  <ref_mols>  (274) 
x0489a

>  <smiles>  (274) 
CCc1nccnc1N1CCC(C(F)F)CC1

>  <HIPPO Compound ID>  (274) 
449124

>  <alias>  (274) 
OITRSSVIOGOAIX-UHFFFAOYSA-N-P33

>  <subsites>  (274) 


>  <placement_batch>  (274) 
CpKRS_FrAncestor_bulkdock_iter2

>  <name>  (274) 
OITRSSVIOGOAIX-UHFFFAOYSA-N-P33

$$$$
HGFYQAKXDDPSJG-UHFFFAOYSA-N-P33
     RDKit          3D

 18 19  0  0  0  0  0  0  0  0999 V2000
    1.2877  -14.6927   28.7972 C   0  0  0  0  0  0  0  0  0  0  0  0
    1.6657  -14.0974   27.4328 C   0  0  0  0  0  0  0  0  0  0  0  0
    3.0381  -14.5343   27.0363 C   0  0  0  0  0  0  0  0  0  0  0  0
    3.5915  -15.3654   27.9704 N   0  0  0  0  0  0  0  0  0  0  0  0
    4.8469  -15.7400   27.7717 C   0  0  0  0  0  0  0  0  0  0  0  0
    5.5587  -15.3094   26.6902 C   0  0  0  0  0  0  0  0  0  0  0  0
    5.0222  -14.5111   25.7524 N   0  0  0  0  0  0  0  0  0  0  0  0
    3.7255  -14.1247   25.8772 C   0  0  0  0  0  0  0  0  0  0  0  0
    3.1914  -13.3929   24.8088 N   0  0  0  0  0  0  0  0  0  0  0  0
    2.3528  -12.2185   25.0568 C   0  0  0  0  0  0  0  0  0  0  0  0
    2.2749  -11.3176   23.8128 C   0  0  0  0  0  0  0  0  0  0  0  0
    3.6687  -10.9046   23.2921 C   0  0  0  0  0  0  0  0  0  0  0  0
    4.0657   -9.5271   23.7715 C   0  0  0  0  0  0  0  0  0  0  0  0
    3.7278   -9.2997   25.0530 F   0  0  0  0  0  0  0  0  0  0  0  0
    3.4383   -8.5893   23.0270 F   0  0  0  0  0  0  0  0  0  0  0  0
    5.3918   -9.3078   23.6509 F   0  0  0  0  0  0  0  0  0  0  0  0
    4.7358  -11.9490   23.6093 C   0  0  0  0  0  0  0  0  0  0  0  0
    4.0821  -13.3172   23.6383 C   0  0  0  0  0  0  0  0  0  0  0  0
  1  2  1  0
  2  3  1  0
  3  4  2  0
  4  5  1  0
  5  6  2  0
  6  7  1  0
  7  8  2  0
  8  9  1  0
  9 10  1  0
 10 11  1  0
 11 12  1  0
 12 13  1  0
 13 14  1  0
 13 15  1  0
 13 16  1  0
 12 17  1  0
 17 18  1  0
  8  3  1  0
 18  9  1  0
M  END
>  <inchikey>  (275) 
HGFYQAKXDDPSJG-UHFFFAOYSA-N

>  <tags>  (275) 
fragmenstein_placed,CpKRS_FrAncestor_bulkdock_iter2

>  <ref_pdb>  (275) 
x0540b

>  <energy_score>  (275) 
-20.238171

>  <distance_score>  (275) 
0.868217

>  <HIPPO Pose ID>  (275) 
54106

>  <ref_mols>  (275) 
x0489a

>  <smiles>  (275) 
CCc1nccnc1N1CCC(C(F)(F)F)CC1

>  <HIPPO Compound ID>  (275) 
449125

>  <alias>  (275) 
HGFYQAKXDDPSJG-UHFFFAOYSA-N-P33

>  <subsites>  (275) 


>  <placement_batch>  (275) 
CpKRS_FrAncestor_bulkdock_iter2

>  <name>  (275) 
HGFYQAKXDDPSJG-UHFFFAOYSA-N-P33

$$$$
LFDDBDVRHNYTKY-UHFFFAOYSA-N-P33
     RDKit          3D

 15 16  0  0  0  0  0  0  0  0999 V2000
    0.1069  -13.7063   25.5399 C   0  0  0  0  0  0  0  0  0  0  0  0
    0.9668  -13.4697   26.7750 C   0  0  0  0  0  0  0  0  0  0  0  0
    2.3217  -14.1157   26.7441 C   0  0  0  0  0  0  0  0  0  0  0  0
    2.5172  -15.0049   27.7732 N   0  0  0  0  0  0  0  0  0  0  0  0
    3.7019  -15.6399   27.7718 C   0  0  0  0  0  0  0  0  0  0  0  0
    4.6690  -15.3729   26.8301 C   0  0  0  0  0  0  0  0  0  0  0  0
    4.4940  -14.4770   25.8341 N   0  0  0  0  0  0  0  0  0  0  0  0
    3.2938  -13.8484   25.7483 C   0  0  0  0  0  0  0  0  0  0  0  0
    3.0469  -13.0244   24.6300 N   0  0  0  0  0  0  0  0  0  0  0  0
    2.6425  -11.6384   24.9033 C   0  0  0  0  0  0  0  0  0  0  0  0
    2.6596  -10.8222   23.6255 C   0  0  0  0  0  0  0  0  0  0  0  0
    4.0929  -10.7055   23.1488 C   0  0  0  0  0  0  0  0  0  0  0  0
    4.6761   -9.6798   23.8376 F   0  0  0  0  0  0  0  0  0  0  0  0
    4.9094  -11.9638   23.4033 C   0  0  0  0  0  0  0  0  0  0  0  0
    4.0123  -13.1855   23.5238 C   0  0  0  0  0  0  0  0  0  0  0  0
  1  2  1  0
  2  3  1  0
  3  4  2  0
  4  5  1  0
  5  6  2  0
  6  7  1  0
  7  8  2  0
  8  9  1  0
  9 10  1  0
 10 11  1  0
 11 12  1  0
 12 13  1  0
 12 14  1  0
 14 15  1  0
  8  3  1  0
 15  9  1  0
M  END
>  <inchikey>  (276) 
LFDDBDVRHNYTKY-UHFFFAOYSA-N

>  <tags>  (276) 
fragmenstein_placed,CpKRS_FrAncestor_bulkdock_iter2

>  <ref_pdb>  (276) 
x0540b

>  <energy_score>  (276) 
-23.529759

>  <distance_score>  (276) 
0.700693

>  <HIPPO Pose ID>  (276) 
54107

>  <ref_mols>  (276) 
x0489a

>  <smiles>  (276) 
CCc1nccnc1N1CCC(F)CC1

>  <HIPPO Compound ID>  (276) 
310837

>  <alias>  (276) 
LFDDBDVRHNYTKY-UHFFFAOYSA-N-P33

>  <subsites>  (276) 


>  <placement_batch>  (276) 
CpKRS_FrAncestor_bulkdock_iter2

>  <name>  (276) 
LFDDBDVRHNYTKY-UHFFFAOYSA-N-P33

$$$$
UDKJHVYMUNFULO-UHFFFAOYSA-N-P48
     RDKit          3D

 16 16  0  0  0  0  0  0  0  0999 V2000
   -0.8877  -13.0590   25.5603 C   0  0  0  0  0  0  0  0  0  0  0  0
   -0.2655  -13.7482   26.7651 C   0  0  0  0  0  0  0  0  0  0  0  0
    1.2026  -13.9980   26.5967 C   0  0  0  0  0  0  0  0  0  0  0  0
    1.9670  -13.4530   25.6733 N   0  0  0  0  0  0  0  0  0  0  0  0
    3.2750  -13.9555   25.7694 C   0  0  0  0  0  0  0  0  0  0  0  0
    4.3236  -13.4883   24.8359 C   0  0  0  0  0  0  0  0  0  0  0  0
    5.4241  -13.8578   24.9069 O   0  0  0  0  0  0  0  0  0  0  0  0
    3.6707  -12.4936   23.8721 N   0  0  0  0  0  0  0  0  0  0  0  0
    4.2129  -11.8064   22.7216 C   0  0  0  0  0  0  0  0  0  0  0  0
    4.7924  -10.4229   23.0062 C   0  0  0  0  0  0  0  0  0  0  0  0
    5.2592   -9.8604   21.8657 F   0  0  0  0  0  0  0  0  0  0  0  0
    5.8058  -10.4563   23.8953 F   0  0  0  0  0  0  0  0  0  0  0  0
    3.8533   -9.5764   23.4968 F   0  0  0  0  0  0  0  0  0  0  0  0
    3.4482  -14.9061   26.7609 C   0  0  0  0  0  0  0  0  0  0  0  0
    4.6462  -15.7105   27.1069 C   0  0  0  0  0  0  0  0  0  0  0  0
    1.9980  -15.0961   27.6473 S   0  0  0  0  0  0  0  0  0  0  0  0
  1  2  1  0
  2  3  1  0
  3  4  2  0
  4  5  1  0
  5  6  1  0
  6  7  2  0
  6  8  1  0
  8  9  1  0
  9 10  1  0
 10 11  1  0
 10 12  1  0
 10 13  1  0
  5 14  2  0
 14 15  1  0
 14 16  1  0
 16  3  1  0
M  END
>  <inchikey>  (277) 
UDKJHVYMUNFULO-UHFFFAOYSA-N

>  <tags>  (277) 
fragmenstein_placed,CpKRS_FrAncestor_bulkdock_iter2

>  <ref_pdb>  (277) 
x0540b

>  <energy_score>  (277) 
-77.165085

>  <distance_score>  (277) 
0.502731

>  <HIPPO Pose ID>  (277) 
54111

>  <ref_mols>  (277) 
x0504a

>  <smiles>  (277) 
CCc1nc(C(=O)NCC(F)(F)F)c(C)s1

>  <HIPPO Compound ID>  (277) 
121178

>  <alias>  (277) 
UDKJHVYMUNFULO-UHFFFAOYSA-N-P48

>  <subsites>  (277) 


>  <placement_batch>  (277) 
CpKRS_FrAncestor_bulkdock_iter2

>  <name>  (277) 
UDKJHVYMUNFULO-UHFFFAOYSA-N-P48

$$$$
CJWJBHVCCFEAJP-ZCFIWIBFSA-N-P48
     RDKit          3D

 17 17  0  0  0  0  0  0  0  0999 V2000
   -1.0214  -13.1955   25.9333 C   0  0  0  0  0  0  0  0  0  0  0  0
   -0.2796  -13.9153   27.0490 C   0  0  0  0  0  0  0  0  0  0  0  0
    1.1844  -14.0593   26.7765 C   0  0  0  0  0  0  0  0  0  0  0  0
    1.8571  -13.3599   25.8899 N   0  0  0  0  0  0  0  0  0  0  0  0
    3.2050  -13.7525   25.8839 C   0  0  0  0  0  0  0  0  0  0  0  0
    4.1471  -13.0852   24.9622 C   0  0  0  0  0  0  0  0  0  0  0  0
    5.2820  -13.3426   24.9293 O   0  0  0  0  0  0  0  0  0  0  0  0
    3.3131  -12.1465   24.0778 N   0  0  0  0  0  0  0  0  0  0  0  0
    3.6822  -11.3897   22.8938 C   0  0  2  0  0  0  0  0  0  0  0  0
    4.6881  -12.1714   22.0659 C   0  0  0  0  0  0  0  0  0  0  0  0
    4.1952   -9.9679   23.1396 C   0  0  0  0  0  0  0  0  0  0  0  0
    4.6666   -9.4151   21.9932 F   0  0  0  0  0  0  0  0  0  0  0  0
    5.1746   -9.8915   24.0587 F   0  0  0  0  0  0  0  0  0  0  0  0
    3.1833   -9.1546   23.5535 F   0  0  0  0  0  0  0  0  0  0  0  0
    3.4970  -14.8042   26.7362 C   0  0  0  0  0  0  0  0  0  0  0  0
    4.7586  -15.5626   26.9336 C   0  0  0  0  0  0  0  0  0  0  0  0
    2.1061  -15.2130   27.6476 S   0  0  0  0  0  0  0  0  0  0  0  0
  1  2  1  0
  2  3  1  0
  3  4  2  0
  4  5  1  0
  5  6  1  0
  6  7  2  0
  6  8  1  0
  8  9  1  0
  9 10  1  1
  9 11  1  0
 11 12  1  0
 11 13  1  0
 11 14  1  0
  5 15  2  0
 15 16  1  0
 15 17  1  0
 17  3  1  0
M  END
>  <inchikey>  (278) 
CJWJBHVCCFEAJP-UHFFFAOYSA-N

>  <tags>  (278) 
fragmenstein_placed,CpKRS_FrAncestor_bulkdock_iter2

>  <ref_pdb>  (278) 
x0540b

>  <energy_score>  (278) 
-63.510092

>  <distance_score>  (278) 
0.479144

>  <HIPPO Pose ID>  (278) 
54114

>  <ref_mols>  (278) 
x0504a

>  <smiles>  (278) 
CCc1nc(C(=O)N[C@H](C)C(F)(F)F)c(C)s1

>  <HIPPO Compound ID>  (278) 
145671

>  <alias>  (278) 
CJWJBHVCCFEAJP-ZCFIWIBFSA-N-P48

>  <subsites>  (278) 


>  <placement_batch>  (278) 
CpKRS_FrAncestor_bulkdock_iter2

>  <name>  (278) 
CJWJBHVCCFEAJP-ZCFIWIBFSA-N-P48

$$$$
JABRAWBIEYVQQU-UHFFFAOYSA-N-P48
     RDKit          3D

 17 17  0  0  0  0  0  0  0  0999 V2000
    4.8920  -16.6953   25.5466 C   0  0  0  0  0  0  0  0  0  0  0  0
    4.8607  -15.6759   26.6749 C   0  0  0  0  0  0  0  0  0  0  0  0
    3.6188  -14.8531   26.6480 C   0  0  0  0  0  0  0  0  0  0  0  0
    2.5972  -15.2264   27.5040 N   0  0  0  0  0  0  0  0  0  0  0  0
    1.5778  -14.4164   27.3619 C   0  0  0  0  0  0  0  0  0  0  0  0
    0.3428  -14.4991   28.1669 C   0  0  0  0  0  0  0  0  0  0  0  0
    1.7356  -13.2307   26.1427 S   0  0  0  0  0  0  0  0  0  0  0  0
    3.3466  -13.7529   25.8474 C   0  0  0  0  0  0  0  0  0  0  0  0
    4.2271  -13.0864   24.8846 C   0  0  0  0  0  0  0  0  0  0  0  0
    5.3790  -13.2490   24.9345 O   0  0  0  0  0  0  0  0  0  0  0  0
    3.3745  -12.3064   23.8711 N   0  0  0  0  0  0  0  0  0  0  0  0
    3.7693  -11.4750   22.7474 C   0  0  2  0  0  0  0  0  0  0  0  0
    4.9380  -12.1019   22.0094 C   0  0  0  0  0  0  0  0  0  0  0  0
    4.0991  -10.0144   23.0737 C   0  0  0  0  0  0  0  0  0  0  0  0
    2.9777   -9.3351   23.4397 F   0  0  0  0  0  0  0  0  0  0  0  0
    4.9978   -9.8706   24.0656 F   0  0  0  0  0  0  0  0  0  0  0  0
    4.5874   -9.3705   21.9847 F   0  0  0  0  0  0  0  0  0  0  0  0
  1  2  1  0
  2  3  1  0
  3  4  1  0
  4  5  2  0
  5  6  1  0
  5  7  1  0
  7  8  1  0
  8  9  1  0
  9 10  2  0
  9 11  1  0
 11 12  1  0
 12 13  1  1
 12 14  1  0
 14 15  1  0
 14 16  1  0
 14 17  1  0
  8  3  2  0
M  END
>  <inchikey>  (279) 
JABRAWBIEYVQQU-UHFFFAOYSA-N

>  <tags>  (279) 
fragmenstein_placed,CpKRS_FrAncestor_bulkdock_iter2

>  <ref_pdb>  (279) 
x0540b

>  <energy_score>  (279) 
-20.670155

>  <distance_score>  (279) 
0.458524

>  <HIPPO Pose ID>  (279) 
54120

>  <ref_mols>  (279) 
x0504a

>  <smiles>  (279) 
CCc1nc(C)sc1C(=O)NC(C)C(F)(F)F

>  <HIPPO Compound ID>  (279) 
145670

>  <alias>  (279) 
JABRAWBIEYVQQU-UHFFFAOYSA-N-P48

>  <subsites>  (279) 


>  <placement_batch>  (279) 
CpKRS_FrAncestor_bulkdock_iter2

>  <name>  (279) 
JABRAWBIEYVQQU-UHFFFAOYSA-N-P48

$$$$
GLJSCVKCLQOAEO-UHFFFAOYSA-N-P48
     RDKit          3D

 16 16  0  0  0  0  0  0  0  0999 V2000
    4.5920  -16.8702   25.5171 C   0  0  0  0  0  0  0  0  0  0  0  0
    4.5435  -15.8491   26.6454 C   0  0  0  0  0  0  0  0  0  0  0  0
    3.4168  -14.8834   26.4736 C   0  0  0  0  0  0  0  0  0  0  0  0
    2.2753  -15.0904   27.2355 N   0  0  0  0  0  0  0  0  0  0  0  0
    1.3806  -14.1712   26.9622 C   0  0  0  0  0  0  0  0  0  0  0  0
    0.0615  -14.0787   27.6279 C   0  0  0  0  0  0  0  0  0  0  0  0
    1.8143  -13.0576   25.7440 S   0  0  0  0  0  0  0  0  0  0  0  0
    3.3596  -13.7968   25.6099 C   0  0  0  0  0  0  0  0  0  0  0  0
    4.4026  -13.2824   24.7146 C   0  0  0  0  0  0  0  0  0  0  0  0
    5.5128  -13.5895   24.8821 O   0  0  0  0  0  0  0  0  0  0  0  0
    3.7754  -12.3452   23.6702 N   0  0  0  0  0  0  0  0  0  0  0  0
    4.3718  -11.6577   22.5454 C   0  0  0  0  0  0  0  0  0  0  0  0
    4.4293  -10.1396   22.6869 C   0  0  0  0  0  0  0  0  0  0  0  0
    5.0476   -9.7419   23.8189 F   0  0  0  0  0  0  0  0  0  0  0  0
    3.1839   -9.5926   22.7046 F   0  0  0  0  0  0  0  0  0  0  0  0
    5.0855   -9.5813   21.6449 F   0  0  0  0  0  0  0  0  0  0  0  0
  1  2  1  0
  2  3  1  0
  3  4  1  0
  4  5  2  0
  5  6  1  0
  5  7  1  0
  7  8  1  0
  8  9  1  0
  9 10  2  0
  9 11  1  0
 11 12  1  0
 12 13  1  0
 13 14  1  0
 13 15  1  0
 13 16  1  0
  8  3  2  0
M  END
>  <inchikey>  (280) 
GLJSCVKCLQOAEO-UHFFFAOYSA-N

>  <tags>  (280) 
fragmenstein_placed,CpKRS_FrAncestor_bulkdock_iter2

>  <ref_pdb>  (280) 
x0540b

>  <energy_score>  (280) 
-46.758777

>  <distance_score>  (280) 
0.429841

>  <HIPPO Pose ID>  (280) 
54126

>  <ref_mols>  (280) 
x0504a

>  <smiles>  (280) 
CCc1nc(C)sc1C(=O)NCC(F)(F)F

>  <HIPPO Compound ID>  (280) 
121107

>  <alias>  (280) 
GLJSCVKCLQOAEO-UHFFFAOYSA-N-P48

>  <subsites>  (280) 


>  <placement_batch>  (280) 
CpKRS_FrAncestor_bulkdock_iter2

>  <name>  (280) 
GLJSCVKCLQOAEO-UHFFFAOYSA-N-P48

$$$$
ZOLVJFIRUFMBRC-UHFFFAOYSA-N-P12
     RDKit          3D

 17 18  0  0  0  0  0  0  0  0999 V2000
    1.5385   -9.8264   23.1694 C   0  0  0  0  0  0  0  0  0  0  0  0
    2.9092   -9.4113   23.6706 C   0  0  0  0  0  0  0  0  0  0  0  0
    4.0181  -10.4839   23.6499 C   0  0  0  0  0  0  0  0  0  0  0  0
    3.5822  -11.5963   24.4482 N   0  0  0  0  0  0  0  0  0  0  0  0
    4.2876  -12.9182   24.7889 C   0  0  0  0  0  0  0  0  0  0  0  0
    5.3655  -13.2853   24.5408 O   0  0  0  0  0  0  0  0  0  0  0  0
    3.3200  -13.6949   25.6011 C   0  0  0  0  0  0  0  0  0  0  0  0
    2.0297  -13.2922   25.6549 N   0  0  0  0  0  0  0  0  0  0  0  0
    1.4648  -14.1053   26.5532 N   0  0  0  0  0  0  0  0  0  0  0  0
    0.0848  -13.9003   26.9186 C   0  0  0  0  0  0  0  0  0  0  0  0
    2.3089  -15.0624   27.0226 C   0  0  0  0  0  0  0  0  0  0  0  0
    3.5334  -14.8334   26.4271 C   0  0  0  0  0  0  0  0  0  0  0  0
    4.7863  -15.5853   26.6504 C   0  0  0  0  0  0  0  0  0  0  0  0
    5.3198   -9.8348   24.1448 C   0  0  0  0  0  0  0  0  0  0  0  0
    5.7858   -8.9886   22.9638 C   0  0  0  0  0  0  0  0  0  0  0  0
    5.2412   -9.6913   21.7205 C   0  0  0  0  0  0  0  0  0  0  0  0
    4.4282  -10.8815   22.2306 C   0  0  0  0  0  0  0  0  0  0  0  0
  1  2  1  0
  2  3  1  0
  3  4  1  0
  4  5  1  0
  5  6  2  0
  5  7  1  0
  7  8  2  0
  8  9  1  0
  9 10  1  0
  9 11  1  0
 11 12  2  0
 12 13  1  0
  3 14  1  0
 14 15  1  0
 15 16  1  0
 16 17  1  0
 17  3  1  0
 12  7  1  0
M  END
>  <inchikey>  (281) 
ZOLVJFIRUFMBRC-UHFFFAOYSA-N

>  <tags>  (281) 
fragmenstein_placed,CpKRS_FrAncestor_bulkdock_iter2

>  <ref_pdb>  (281) 
x0540b

>  <energy_score>  (281) 
-36.759303

>  <distance_score>  (281) 
0.459102

>  <HIPPO Pose ID>  (281) 
54136

>  <ref_mols>  (281) 
x0421b

>  <smiles>  (281) 
CCC1(NC(=O)c2nn(C)cc2C)CCCC1

>  <HIPPO Compound ID>  (281) 
449127

>  <alias>  (281) 
ZOLVJFIRUFMBRC-UHFFFAOYSA-N-P12

>  <subsites>  (281) 


>  <placement_batch>  (281) 
CpKRS_FrAncestor_bulkdock_iter2

>  <name>  (281) 
ZOLVJFIRUFMBRC-UHFFFAOYSA-N-P12

$$$$
JKEVOFNKRLERFI-UHFFFAOYSA-N-P12
     RDKit          3D

 17 18  0  0  0  0  0  0  0  0999 V2000
    1.5094   -9.8434   23.1698 C   0  0  0  0  0  0  0  0  0  0  0  0
    2.8836   -9.4001   23.6360 C   0  0  0  0  0  0  0  0  0  0  0  0
    4.0001  -10.4649   23.6422 C   0  0  0  0  0  0  0  0  0  0  0  0
    3.5693  -11.5717   24.4513 N   0  0  0  0  0  0  0  0  0  0  0  0
    4.2674  -12.9012   24.7780 C   0  0  0  0  0  0  0  0  0  0  0  0
    5.3345  -13.2800   24.5069 O   0  0  0  0  0  0  0  0  0  0  0  0
    3.3080  -13.6722   25.5963 C   0  0  0  0  0  0  0  0  0  0  0  0
    2.0160  -13.2666   25.6686 N   0  0  0  0  0  0  0  0  0  0  0  0
    1.4634  -14.0908   26.5681 N   0  0  0  0  0  0  0  0  0  0  0  0
    0.0853  -13.8940   26.9479 C   0  0  0  0  0  0  0  0  0  0  0  0
    2.3132  -15.0516   27.0204 C   0  0  0  0  0  0  0  0  0  0  0  0
    3.5196  -14.8105   26.4065 C   0  0  0  0  0  0  0  0  0  0  0  0
    4.9572  -15.6706   26.6330 Cl  0  0  0  0  0  0  0  0  0  0  0  0
    4.4254  -10.8747   22.2302 C   0  0  0  0  0  0  0  0  0  0  0  0
    5.2452   -9.6895   21.7177 C   0  0  0  0  0  0  0  0  0  0  0  0
    5.7689   -8.9686   22.9595 C   0  0  0  0  0  0  0  0  0  0  0  0
    5.2953   -9.8065   24.1426 C   0  0  0  0  0  0  0  0  0  0  0  0
  1  2  1  0
  2  3  1  0
  3  4  1  0
  4  5  1  0
  5  6  2  0
  5  7  1  0
  7  8  2  0
  8  9  1  0
  9 10  1  0
  9 11  1  0
 11 12  2  0
 12 13  1  0
  3 14  1  0
 14 15  1  0
 15 16  1  0
 16 17  1  0
 17  3  1  0
 12  7  1  0
M  END
>  <inchikey>  (282) 
JKEVOFNKRLERFI-UHFFFAOYSA-N

>  <tags>  (282) 
fragmenstein_placed,CpKRS_FrAncestor_bulkdock_iter2

>  <ref_pdb>  (282) 
x0540b

>  <energy_score>  (282) 
-17.202458

>  <distance_score>  (282) 
0.465042

>  <HIPPO Pose ID>  (282) 
54140

>  <ref_mols>  (282) 
x0421b

>  <smiles>  (282) 
CCC1(NC(=O)c2nn(C)cc2Cl)CCCC1

>  <HIPPO Compound ID>  (282) 
449128

>  <alias>  (282) 
JKEVOFNKRLERFI-UHFFFAOYSA-N-P12

>  <subsites>  (282) 


>  <placement_batch>  (282) 
CpKRS_FrAncestor_bulkdock_iter2

>  <name>  (282) 
JKEVOFNKRLERFI-UHFFFAOYSA-N-P12

$$$$
SDCBLVBJAINBPH-UHFFFAOYSA-N-P12
     RDKit          3D

 17 18  0  0  0  0  0  0  0  0999 V2000
    1.4085  -10.4024   22.9642 C   0  0  0  0  0  0  0  0  0  0  0  0
    2.6620   -9.6031   23.3039 C   0  0  0  0  0  0  0  0  0  0  0  0
    3.9212  -10.4756   23.5741 C   0  0  0  0  0  0  0  0  0  0  0  0
    3.5457  -11.5594   24.4515 N   0  0  0  0  0  0  0  0  0  0  0  0
    4.3069  -12.8386   24.8436 C   0  0  0  0  0  0  0  0  0  0  0  0
    5.3884  -13.1840   24.5818 O   0  0  0  0  0  0  0  0  0  0  0  0
    3.3622  -13.6382   25.6456 C   0  0  0  0  0  0  0  0  0  0  0  0
    2.0514  -13.2887   25.6885 N   0  0  0  0  0  0  0  0  0  0  0  0
    1.5183  -14.1235   26.5950 N   0  0  0  0  0  0  0  0  0  0  0  0
    0.1350  -13.9530   26.9700 C   0  0  0  0  0  0  0  0  0  0  0  0
    2.3922  -15.0601   27.0586 C   0  0  0  0  0  0  0  0  0  0  0  0
    3.5868  -14.7616   26.4574 C   0  0  0  0  0  0  0  0  0  0  0  0
    4.7397  -15.4030   26.6667 F   0  0  0  0  0  0  0  0  0  0  0  0
    4.5717  -10.9313   22.2600 C   0  0  0  0  0  0  0  0  0  0  0  0
    5.3128   -9.6933   21.7470 C   0  0  0  0  0  0  0  0  0  0  0  0
    5.5808   -8.8175   22.9691 C   0  0  0  0  0  0  0  0  0  0  0  0
    5.0499   -9.6114   24.1559 C   0  0  0  0  0  0  0  0  0  0  0  0
  1  2  1  0
  2  3  1  0
  3  4  1  0
  4  5  1  0
  5  6  2  0
  5  7  1  0
  7  8  2  0
  8  9  1  0
  9 10  1  0
  9 11  1  0
 11 12  2  0
 12 13  1  0
  3 14  1  0
 14 15  1  0
 15 16  1  0
 16 17  1  0
 17  3  1  0
 12  7  1  0
M  END
>  <inchikey>  (283) 
SDCBLVBJAINBPH-UHFFFAOYSA-N

>  <tags>  (283) 
fragmenstein_placed,CpKRS_FrAncestor_bulkdock_iter2

>  <ref_pdb>  (283) 
x0540b

>  <energy_score>  (283) 
-16.293858

>  <distance_score>  (283) 
0.482049

>  <HIPPO Pose ID>  (283) 
54144

>  <ref_mols>  (283) 
x0421b

>  <smiles>  (283) 
CCC1(NC(=O)c2nn(C)cc2F)CCCC1

>  <HIPPO Compound ID>  (283) 
145443

>  <alias>  (283) 
SDCBLVBJAINBPH-UHFFFAOYSA-N-P12

>  <subsites>  (283) 


>  <placement_batch>  (283) 
CpKRS_FrAncestor_bulkdock_iter2

>  <name>  (283) 
SDCBLVBJAINBPH-UHFFFAOYSA-N-P12

$$$$
USTGDBSMLSAATD-UHFFFAOYSA-N-P11
     RDKit          3D

 18 19  0  0  0  0  0  0  0  0999 V2000
    1.8665   -9.0184   23.1197 C   0  0  0  0  0  0  0  0  0  0  0  0
    2.1199  -10.4668   23.4016 C   0  0  0  0  0  0  0  0  0  0  0  0
    3.5825  -10.9311   23.6338 C   0  0  0  0  0  0  0  0  0  0  0  0
    3.4010  -12.0502   24.5183 N   0  0  0  0  0  0  0  0  0  0  0  0
    4.3908  -13.1097   24.9946 C   0  0  0  0  0  0  0  0  0  0  0  0
    5.5347  -13.2094   24.8119 O   0  0  0  0  0  0  0  0  0  0  0  0
    3.5812  -13.9814   25.8649 C   0  0  0  0  0  0  0  0  0  0  0  0
    2.2492  -13.7433   25.9990 N   0  0  0  0  0  0  0  0  0  0  0  0
    1.8455  -14.6655   26.8751 N   0  0  0  0  0  0  0  0  0  0  0  0
    0.4444  -14.7095   27.1967 C   0  0  0  0  0  0  0  0  0  0  0  0
    2.8556  -15.4283   27.3844 C   0  0  0  0  0  0  0  0  0  0  0  0
    2.7020  -16.4511   28.4371 C   0  0  0  0  0  0  0  0  0  0  0  0
    3.9855  -15.0270   26.7068 C   0  0  0  0  0  0  0  0  0  0  0  0
    5.5543  -15.6074   26.8965 Cl  0  0  0  0  0  0  0  0  0  0  0  0
    4.3221  -11.3197   22.3434 C   0  0  0  0  0  0  0  0  0  0  0  0
    4.9723  -10.0393   21.8324 C   0  0  0  0  0  0  0  0  0  0  0  0
    5.1790   -9.1519   23.0526 C   0  0  0  0  0  0  0  0  0  0  0  0
    4.5352   -9.8836   24.2289 C   0  0  0  0  0  0  0  0  0  0  0  0
  1  2  1  0
  2  3  1  0
  3  4  1  0
  4  5  1  0
  5  6  2  0
  5  7  1  0
  7  8  2  0
  8  9  1  0
  9 10  1  0
  9 11  1  0
 11 12  1  0
 11 13  2  0
 13 14  1  0
  3 15  1  0
 15 16  1  0
 16 17  1  0
 17 18  1  0
 18  3  1  0
 13  7  1  0
M  END
>  <inchikey>  (284) 
USTGDBSMLSAATD-UHFFFAOYSA-N

>  <tags>  (284) 
fragmenstein_placed,CpKRS_FrAncestor_bulkdock_iter2

>  <ref_pdb>  (284) 
x0540b

>  <energy_score>  (284) 
-13.03111

>  <distance_score>  (284) 
0.648114

>  <HIPPO Pose ID>  (284) 
54147

>  <ref_mols>  (284) 
x0421a

>  <smiles>  (284) 
CCC1(NC(=O)c2nn(C)c(C)c2Cl)CCCC1

>  <HIPPO Compound ID>  (284) 
449129

>  <alias>  (284) 
USTGDBSMLSAATD-UHFFFAOYSA-N-P11

>  <subsites>  (284) 


>  <placement_batch>  (284) 
CpKRS_FrAncestor_bulkdock_iter2

>  <name>  (284) 
USTGDBSMLSAATD-UHFFFAOYSA-N-P11

$$$$
WQOORKSSCCRNBQ-UHFFFAOYSA-N-P50
     RDKit          3D

 12 12  0  0  0  0  0  0  0  0999 V2000
   -0.7052  -12.8700   26.8646 C   0  0  0  0  0  0  0  0  0  0  0  0
    0.1732  -13.5999   27.5721 C   0  0  0  0  0  0  0  0  0  0  0  0
    1.3991  -14.1867   27.0080 C   0  0  0  0  0  0  0  0  0  0  0  0
    1.5879  -13.8819   25.7060 N   0  0  0  0  0  0  0  0  0  0  0  0
    2.6890  -14.3477   25.1031 C   0  0  0  0  0  0  0  0  0  0  0  0
    2.9109  -14.0099   23.7930 O   0  0  0  0  0  0  0  0  0  0  0  0
    2.1721  -12.8662   23.3739 C   0  0  0  0  0  0  0  0  0  0  0  0
    3.6069  -15.1732   25.7181 C   0  0  0  0  0  0  0  0  0  0  0  0
    3.4130  -15.4810   27.0582 C   0  0  0  0  0  0  0  0  0  0  0  0
    2.3009  -14.9680   27.7425 C   0  0  0  0  0  0  0  0  0  0  0  0
    2.1946  -15.1901   29.2228 C   0  0  0  0  0  0  0  0  0  0  0  0
    1.0764  -15.9643   29.6111 O   0  0  0  0  0  0  0  0  0  0  0  0
  1  2  2  0
  2  3  1  0
  3  4  2  0
  4  5  1  0
  5  6  1  0
  6  7  1  0
  5  8  2  0
  8  9  1  0
  9 10  2  0
 10 11  1  0
 11 12  1  0
 10  3  1  0
M  END
>  <inchikey>  (285) 
WQOORKSSCCRNBQ-UHFFFAOYSA-N

>  <tags>  (285) 
fragmenstein_placed,CpKRS_FrAncestor_bulkdock_iter2

>  <ref_pdb>  (285) 
x0540b

>  <energy_score>  (285) 
-16.068974

>  <distance_score>  (285) 
0.704953

>  <HIPPO Pose ID>  (285) 
54151

>  <ref_mols>  (285) 
x0634a

>  <smiles>  (285) 
C=Cc1nc(OC)ccc1CO

>  <HIPPO Compound ID>  (285) 
449130

>  <alias>  (285) 
WQOORKSSCCRNBQ-UHFFFAOYSA-N-P50

>  <subsites>  (285) 


>  <placement_batch>  (285) 
CpKRS_FrAncestor_bulkdock_iter2

>  <name>  (285) 
WQOORKSSCCRNBQ-UHFFFAOYSA-N-P50

$$$$
LLFHEYJAEBNMJP-UHFFFAOYSA-N-P47
     RDKit          3D

 17 17  0  0  0  0  0  0  0  0999 V2000
    5.3136    2.9069   43.0247 C   0  0  0  0  0  0  0  0  0  0  0  0
    4.0912    2.4566   43.7952 C   0  0  0  0  0  0  0  0  0  0  0  0
    3.4947    3.4589   44.7525 C   0  0  0  0  0  0  0  0  0  0  0  0
    3.4923    3.1115   46.1016 N   0  0  0  0  0  0  0  0  0  0  0  0
    2.8251    4.0068   46.7932 C   0  0  0  0  0  0  0  0  0  0  0  0
    2.2486    5.3559   45.9160 S   0  0  0  0  0  0  0  0  0  0  0  0
    2.8493    4.6645   44.4652 C   0  0  0  0  0  0  0  0  0  0  0  0
    2.6203    5.2714   43.1507 C   0  0  0  0  0  0  0  0  0  0  0  0
    2.7271    4.5843   42.2184 O   0  0  0  0  0  0  0  0  0  0  0  0
    2.3600    6.7869   43.2491 N   0  0  0  0  0  0  0  0  0  0  0  0
    2.2688    7.8169   42.1906 C   0  0  0  0  0  0  0  0  0  0  0  0
    1.9726    9.1936   42.8007 C   0  0  0  0  0  0  0  0  0  0  0  0
    1.1427    7.5058   41.1984 C   0  0  0  0  0  0  0  0  0  0  0  0
    3.6148    7.8873   41.4322 C   0  0  0  0  0  0  0  0  0  0  0  0
    3.8866    6.7650   40.7333 F   0  0  0  0  0  0  0  0  0  0  0  0
    3.6458    8.9192   40.5611 F   0  0  0  0  0  0  0  0  0  0  0  0
    4.6324    8.0614   42.3146 F   0  0  0  0  0  0  0  0  0  0  0  0
  1  2  1  0
  2  3  1  0
  3  4  1  0
  4  5  2  0
  5  6  1  0
  6  7  1  0
  7  8  1  0
  8  9  2  0
  8 10  1  0
 10 11  1  0
 11 12  1  0
 11 13  1  0
 11 14  1  0
 14 15  1  0
 14 16  1  0
 14 17  1  0
  7  3  2  0
M  END
>  <inchikey>  (286) 
LLFHEYJAEBNMJP-UHFFFAOYSA-N

>  <tags>  (286) 
fragmenstein_placed,CpKRS_FrAncestor_bulkdock_iter2

>  <ref_pdb>  (286) 
x0540b

>  <energy_score>  (286) 
-18.512693

>  <distance_score>  (286) 
0.564867

>  <HIPPO Pose ID>  (286) 
54158

>  <ref_mols>  (286) 
x0504c

>  <smiles>  (286) 
CCc1ncsc1C(=O)NC(C)(C)C(F)(F)F

>  <HIPPO Compound ID>  (286) 
151430

>  <alias>  (286) 
LLFHEYJAEBNMJP-UHFFFAOYSA-N-P47

>  <subsites>  (286) 


>  <placement_batch>  (286) 
CpKRS_FrAncestor_bulkdock_iter2

>  <name>  (286) 
LLFHEYJAEBNMJP-UHFFFAOYSA-N-P47

$$$$
VCGKDOBZWBNXAO-UHFFFAOYSA-N-P49
     RDKit          3D

 15 15  0  0  0  0  0  0  0  0999 V2000
    3.9885  -17.0236   25.7341 C   0  0  0  0  0  0  0  0  0  0  0  0
    4.1770  -15.8972   26.7371 C   0  0  0  0  0  0  0  0  0  0  0  0
    3.1195  -14.8513   26.5858 C   0  0  0  0  0  0  0  0  0  0  0  0
    1.9973  -14.9678   27.3999 N   0  0  0  0  0  0  0  0  0  0  0  0
    1.1688  -13.9884   27.1490 C   0  0  0  0  0  0  0  0  0  0  0  0
    1.6140  -12.9220   25.9002 S   0  0  0  0  0  0  0  0  0  0  0  0
    3.1113  -13.7636   25.7161 C   0  0  0  0  0  0  0  0  0  0  0  0
    4.1628  -13.3121   24.7857 C   0  0  0  0  0  0  0  0  0  0  0  0
    5.1848  -13.8700   24.7462 O   0  0  0  0  0  0  0  0  0  0  0  0
    3.6668  -12.0840   24.0029 N   0  0  0  0  0  0  0  0  0  0  0  0
    4.3604  -11.2193   23.0691 C   0  0  0  0  0  0  0  0  0  0  0  0
    5.0358  -10.0182   23.7317 C   0  0  0  0  0  0  0  0  0  0  0  0
    6.1144  -10.3761   24.4565 F   0  0  0  0  0  0  0  0  0  0  0  0
    4.1853   -9.3758   24.5660 F   0  0  0  0  0  0  0  0  0  0  0  0
    5.4363   -9.1187   22.8048 F   0  0  0  0  0  0  0  0  0  0  0  0
  1  2  1  0
  2  3  1  0
  3  4  1  0
  4  5  2  0
  5  6  1  0
  6  7  1  0
  7  8  1  0
  8  9  2  0
  8 10  1  0
 10 11  1  0
 11 12  1  0
 12 13  1  0
 12 14  1  0
 12 15  1  0
  7  3  2  0
M  END
>  <inchikey>  (287) 
VCGKDOBZWBNXAO-UHFFFAOYSA-N

>  <tags>  (287) 
fragmenstein_placed,CpKRS_FrAncestor_bulkdock_iter2

>  <ref_pdb>  (287) 
x0540b

>  <energy_score>  (287) 
-15.147157

>  <distance_score>  (287) 
0.378572

>  <HIPPO Pose ID>  (287) 
54166

>  <ref_mols>  (287) 
x0504b

>  <smiles>  (287) 
CCc1ncsc1C(=O)NCC(F)(F)F

>  <HIPPO Compound ID>  (287) 
449131

>  <alias>  (287) 
VCGKDOBZWBNXAO-UHFFFAOYSA-N-P49

>  <subsites>  (287) 


>  <placement_batch>  (287) 
CpKRS_FrAncestor_bulkdock_iter2

>  <name>  (287) 
VCGKDOBZWBNXAO-UHFFFAOYSA-N-P49

$$$$
XXENXNLDOMVQAJ-RXMQYKEDSA-N-P48
     RDKit          3D

 16 16  0  0  0  0  0  0  0  0999 V2000
    5.3909  -15.6566   26.9473 C   0  0  0  0  0  0  0  0  0  0  0  0
    4.0836  -16.0434   26.2943 C   0  0  0  0  0  0  0  0  0  0  0  0
    3.0152  -15.0198   26.4795 C   0  0  0  0  0  0  0  0  0  0  0  0
    2.0047  -15.2899   27.3908 N   0  0  0  0  0  0  0  0  0  0  0  0
    1.1186  -14.3231   27.3664 C   0  0  0  0  0  0  0  0  0  0  0  0
    1.4068  -13.0807   26.2301 S   0  0  0  0  0  0  0  0  0  0  0  0
    2.8965  -13.8151   25.7950 C   0  0  0  0  0  0  0  0  0  0  0  0
    3.8403  -13.2323   24.8270 C   0  0  0  0  0  0  0  0  0  0  0  0
    4.8943  -13.7079   24.7006 O   0  0  0  0  0  0  0  0  0  0  0  0
    3.1897  -12.0492   24.0984 N   0  0  0  0  0  0  0  0  0  0  0  0
    3.6667  -11.2498   22.9811 C   0  0  2  0  0  0  0  0  0  0  0  0
    4.2625  -12.1694   21.9259 C   0  0  0  0  0  0  0  0  0  0  0  0
    4.6901  -10.1670   23.3342 C   0  0  0  0  0  0  0  0  0  0  0  0
    4.1285   -9.2328   24.1402 F   0  0  0  0  0  0  0  0  0  0  0  0
    5.0952   -9.5133   22.2171 F   0  0  0  0  0  0  0  0  0  0  0  0
    5.7804  -10.6453   23.9598 F   0  0  0  0  0  0  0  0  0  0  0  0
  1  2  1  0
  2  3  1  0
  3  4  1  0
  4  5  2  0
  5  6  1  0
  6  7  1  0
  7  8  1  0
  8  9  2  0
  8 10  1  0
 10 11  1  0
 11 12  1  6
 11 13  1  0
 13 14  1  0
 13 15  1  0
 13 16  1  0
  7  3  2  0
M  END
>  <inchikey>  (288) 
XXENXNLDOMVQAJ-UHFFFAOYSA-N

>  <tags>  (288) 
fragmenstein_placed,CpKRS_FrAncestor_bulkdock_iter2

>  <ref_pdb>  (288) 
x0540b

>  <energy_score>  (288) 
-39.424223

>  <distance_score>  (288) 
0.482179

>  <HIPPO Pose ID>  (288) 
54174

>  <ref_mols>  (288) 
x0504a

>  <smiles>  (288) 
CCc1ncsc1C(=O)N[C@H](C)C(F)(F)F

>  <HIPPO Compound ID>  (288) 
122210

>  <alias>  (288) 
XXENXNLDOMVQAJ-RXMQYKEDSA-N-P48

>  <subsites>  (288) 


>  <placement_batch>  (288) 
CpKRS_FrAncestor_bulkdock_iter2

>  <name>  (288) 
XXENXNLDOMVQAJ-RXMQYKEDSA-N-P48

$$$$
HAPYQVALOVDIFE-UHFFFAOYSA-N-P49
     RDKit          3D

 17 17  0  0  0  0  0  0  0  0999 V2000
    5.2645  -16.4761   26.0672 C   0  0  0  0  0  0  0  0  0  0  0  0
    4.3629  -15.7167   26.2825 C   0  0  0  0  0  0  0  0  0  0  0  0
    3.2725  -14.8261   26.4738 C   0  0  0  0  0  0  0  0  0  0  0  0
    1.9866  -15.1679   27.5546 S   0  0  0  0  0  0  0  0  0  0  0  0
    1.2267  -13.7140   27.0857 C   0  0  0  0  0  0  0  0  0  0  0  0
    1.8399  -12.9905   26.1787 N   0  0  0  0  0  0  0  0  0  0  0  0
    3.0617  -13.6115   25.8389 C   0  0  0  0  0  0  0  0  0  0  0  0
    3.9731  -12.9782   24.8535 C   0  0  0  0  0  0  0  0  0  0  0  0
    4.9578  -13.4927   24.5018 O   0  0  0  0  0  0  0  0  0  0  0  0
    3.3071  -11.6716   24.3841 N   0  0  0  0  0  0  0  0  0  0  0  0
    3.7682  -10.6559   23.4330 C   0  0  0  0  0  0  0  0  0  0  0  0
    2.5572   -9.7631   23.1155 C   0  0  0  0  0  0  0  0  0  0  0  0
    4.1908  -11.4023   22.1558 C   0  0  0  0  0  0  0  0  0  0  0  0
    4.9660   -9.7971   23.9711 C   0  0  0  0  0  0  0  0  0  0  0  0
    4.5672   -8.8606   25.1075 C   0  0  0  0  0  0  0  0  0  0  0  0
    5.6642   -8.9509   22.8984 C   0  0  0  0  0  0  0  0  0  0  0  0
    5.9203  -10.6430   24.4639 F   0  0  0  0  0  0  0  0  0  0  0  0
  1  2  3  0
  2  3  1  0
  3  4  1  0
  4  5  1  0
  5  6  2  0
  6  7  1  0
  7  8  1  0
  8  9  2  0
  8 10  1  0
 10 11  1  0
 11 12  1  0
 11 13  1  0
 11 14  1  0
 14 15  1  0
 14 16  1  0
 14 17  1  0
  7  3  2  0
M  END
>  <inchikey>  (289) 
HAPYQVALOVDIFE-UHFFFAOYSA-N

>  <tags>  (289) 
fragmenstein_placed,CpKRS_FrAncestor_bulkdock_iter2

>  <ref_pdb>  (289) 
x0540b

>  <energy_score>  (289) 
-39.609404

>  <distance_score>  (289) 
0.533692

>  <HIPPO Pose ID>  (289) 
54181

>  <ref_mols>  (289) 
x0504b

>  <smiles>  (289) 
C#Cc1scnc1C(=O)NC(C)(C)C(C)(C)F

>  <HIPPO Compound ID>  (289) 
449132

>  <alias>  (289) 
HAPYQVALOVDIFE-UHFFFAOYSA-N-P49

>  <subsites>  (289) 


>  <placement_batch>  (289) 
CpKRS_FrAncestor_bulkdock_iter2

>  <name>  (289) 
HAPYQVALOVDIFE-UHFFFAOYSA-N-P49

$$$$
VVWRGZLRFROFGO-UHFFFAOYSA-N-P49
     RDKit          3D

 18 18  0  0  0  0  0  0  0  0999 V2000
    5.1237  -16.4041   26.0494 C   0  0  0  0  0  0  0  0  0  0  0  0
    4.2223  -15.6235   26.1724 C   0  0  0  0  0  0  0  0  0  0  0  0
    3.1392  -14.7056   26.2728 C   0  0  0  0  0  0  0  0  0  0  0  0
    1.8139  -14.9702   27.3277 S   0  0  0  0  0  0  0  0  0  0  0  0
    1.1294  -13.4945   26.8112 C   0  0  0  0  0  0  0  0  0  0  0  0
    1.7999  -12.8112   25.9117 N   0  0  0  0  0  0  0  0  0  0  0  0
    2.9817  -13.5049   25.5915 C   0  0  0  0  0  0  0  0  0  0  0  0
    3.9570  -12.9229   24.6379 C   0  0  0  0  0  0  0  0  0  0  0  0
    4.8417  -13.5542   24.2174 O   0  0  0  0  0  0  0  0  0  0  0  0
    3.5846  -11.4450   24.4043 N   0  0  0  0  0  0  0  0  0  0  0  0
    4.2931  -10.3831   23.6617 C   0  0  1  0  0  0  0  0  0  0  0  0
    5.7807  -10.6449   23.7508 C   0  0  0  0  0  0  0  0  0  0  0  0
    3.8956  -10.4373   22.1798 C   0  0  0  0  0  0  0  0  0  0  0  0
    4.6777   -9.4972   21.2552 C   0  0  0  0  0  0  0  0  0  0  0  0
    4.0636   -8.9825   24.2374 C   0  0  0  0  0  0  0  0  0  0  0  0
    4.8628   -8.0673   23.6372 F   0  0  0  0  0  0  0  0  0  0  0  0
    4.3332   -8.9418   25.5573 F   0  0  0  0  0  0  0  0  0  0  0  0
    2.7903   -8.5598   24.0399 F   0  0  0  0  0  0  0  0  0  0  0  0
  1  2  3  0
  2  3  1  0
  3  4  1  0
  4  5  1  0
  5  6  2  0
  6  7  1  0
  7  8  1  0
  8  9  2  0
  8 10  1  0
 10 11  1  0
 11 12  1  6
 11 13  1  0
 13 14  1  0
 11 15  1  0
 15 16  1  0
 15 17  1  0
 15 18  1  0
  7  3  2  0
M  END
>  <inchikey>  (290) 
VVWRGZLRFROFGO-UHFFFAOYSA-N

>  <tags>  (290) 
fragmenstein_placed,CpKRS_FrAncestor_bulkdock_iter2

>  <ref_pdb>  (290) 
x0540b

>  <energy_score>  (290) 
-43.224909

>  <distance_score>  (290) 
0.762885

>  <HIPPO Pose ID>  (290) 
54187

>  <ref_mols>  (290) 
x0504b

>  <smiles>  (290) 
C#Cc1scnc1C(=O)NC(C)(CC)C(F)(F)F

>  <HIPPO Compound ID>  (290) 
449134

>  <alias>  (290) 
VVWRGZLRFROFGO-UHFFFAOYSA-N-P49

>  <subsites>  (290) 


>  <placement_batch>  (290) 
CpKRS_FrAncestor_bulkdock_iter2

>  <name>  (290) 
VVWRGZLRFROFGO-UHFFFAOYSA-N-P49

$$$$
CWMKVFKKCURCGM-UHFFFAOYSA-N-P49
     RDKit          3D

 17 17  0  0  0  0  0  0  0  0999 V2000
    5.2795  -16.4750   26.0574 C   0  0  0  0  0  0  0  0  0  0  0  0
    4.3650  -15.7352   26.2859 C   0  0  0  0  0  0  0  0  0  0  0  0
    3.2588  -14.8708   26.5034 C   0  0  0  0  0  0  0  0  0  0  0  0
    1.9990  -15.2509   27.6015 S   0  0  0  0  0  0  0  0  0  0  0  0
    1.2070  -13.8027   27.1709 C   0  0  0  0  0  0  0  0  0  0  0  0
    1.7904  -13.0556   26.2637 N   0  0  0  0  0  0  0  0  0  0  0  0
    3.0141  -13.6520   25.8902 C   0  0  0  0  0  0  0  0  0  0  0  0
    3.9018  -12.9777   24.9119 C   0  0  0  0  0  0  0  0  0  0  0  0
    4.9129  -13.4411   24.5659 O   0  0  0  0  0  0  0  0  0  0  0  0
    3.1894  -11.6915   24.4624 N   0  0  0  0  0  0  0  0  0  0  0  0
    3.6225  -10.6339   23.5435 C   0  0  0  0  0  0  0  0  0  0  0  0
    4.1171  -11.3110   22.2557 C   0  0  0  0  0  0  0  0  0  0  0  0
    2.3865   -9.7755   23.2387 C   0  0  0  0  0  0  0  0  0  0  0  0
    4.7452   -9.7323   24.1358 C   0  0  0  0  0  0  0  0  0  0  0  0
    5.3825   -8.7364   23.1796 C   0  0  0  0  0  0  0  0  0  0  0  0
    4.2525   -9.0335   25.1976 F   0  0  0  0  0  0  0  0  0  0  0  0
    5.7472  -10.4947   24.6342 F   0  0  0  0  0  0  0  0  0  0  0  0
  1  2  3  0
  2  3  1  0
  3  4  1  0
  4  5  1  0
  5  6  2  0
  6  7  1  0
  7  8  1  0
  8  9  2  0
  8 10  1  0
 10 11  1  0
 11 12  1  0
 11 13  1  0
 11 14  1  0
 14 15  1  0
 14 16  1  0
 14 17  1  0
  7  3  2  0
M  END
>  <inchikey>  (291) 
CWMKVFKKCURCGM-UHFFFAOYSA-N

>  <tags>  (291) 
fragmenstein_placed,CpKRS_FrAncestor_bulkdock_iter2

>  <ref_pdb>  (291) 
x0540b

>  <energy_score>  (291) 
-81.724867

>  <distance_score>  (291) 
0.588109

>  <HIPPO Pose ID>  (291) 
54190

>  <ref_mols>  (291) 
x0504b

>  <smiles>  (291) 
C#Cc1scnc1C(=O)NC(C)(C)C(C)(F)F

>  <HIPPO Compound ID>  (291) 
145635

>  <alias>  (291) 
CWMKVFKKCURCGM-UHFFFAOYSA-N-P49

>  <subsites>  (291) 


>  <placement_batch>  (291) 
CpKRS_FrAncestor_bulkdock_iter2

>  <name>  (291) 
CWMKVFKKCURCGM-UHFFFAOYSA-N-P49

$$$$
HRKCZBRDWGTZQA-UHFFFAOYSA-N-P48
     RDKit          3D

 16 16  0  0  0  0  0  0  0  0999 V2000
    5.3404  -16.6178   25.8807 C   0  0  0  0  0  0  0  0  0  0  0  0
    4.4827  -15.8655   26.2512 C   0  0  0  0  0  0  0  0  0  0  0  0
    3.4314  -14.9467   26.5220 C   0  0  0  0  0  0  0  0  0  0  0  0
    2.1687  -15.2452   27.6315 S   0  0  0  0  0  0  0  0  0  0  0  0
    1.3687  -13.8355   27.0824 C   0  0  0  0  0  0  0  0  0  0  0  0
    1.9923  -13.1312   26.1627 N   0  0  0  0  0  0  0  0  0  0  0  0
    3.2337  -13.7312   25.8879 C   0  0  0  0  0  0  0  0  0  0  0  0
    4.1775  -13.1174   24.9306 C   0  0  0  0  0  0  0  0  0  0  0  0
    5.2779  -13.4849   24.8303 O   0  0  0  0  0  0  0  0  0  0  0  0
    3.4104  -12.0453   24.1429 N   0  0  0  0  0  0  0  0  0  0  0  0
    3.8074  -11.2571   22.9926 C   0  0  2  0  0  0  0  0  0  0  0  0
    4.3719  -12.2117   21.9483 C   0  0  0  0  0  0  0  0  0  0  0  0
    4.7910  -10.1097   23.3291 C   0  0  0  0  0  0  0  0  0  0  0  0
    5.3051   -9.3774   22.0878 C   0  0  0  0  0  0  0  0  0  0  0  0
    4.1442   -9.1009   24.2700 C   0  0  0  0  0  0  0  0  0  0  0  0
    5.8766  -10.6156   23.9803 F   0  0  0  0  0  0  0  0  0  0  0  0
  1  2  3  0
  2  3  1  0
  3  4  1  0
  4  5  1  0
  5  6  2  0
  6  7  1  0
  7  8  1  0
  8  9  2  0
  8 10  1  0
 10 11  1  0
 11 12  1  6
 11 13  1  0
 13 14  1  0
 13 15  1  0
 13 16  1  0
  7  3  2  0
M  END
>  <inchikey>  (292) 
HRKCZBRDWGTZQA-UHFFFAOYSA-N

>  <tags>  (292) 
fragmenstein_placed,CpKRS_FrAncestor_bulkdock_iter2

>  <ref_pdb>  (292) 
x0540b

>  <energy_score>  (292) 
-64.953527

>  <distance_score>  (292) 
0.611451

>  <HIPPO Pose ID>  (292) 
54192

>  <ref_mols>  (292) 
x0504a

>  <smiles>  (292) 
C#Cc1scnc1C(=O)NC(C)C(C)(C)F

>  <HIPPO Compound ID>  (292) 
131420

>  <alias>  (292) 
HRKCZBRDWGTZQA-UHFFFAOYSA-N-P48

>  <subsites>  (292) 


>  <placement_batch>  (292) 
CpKRS_FrAncestor_bulkdock_iter2

>  <name>  (292) 
HRKCZBRDWGTZQA-UHFFFAOYSA-N-P48

$$$$
SDQUDGXEWGRTGK-UHFFFAOYSA-N-P48
     RDKit          3D

 17 17  0  0  0  0  0  0  0  0999 V2000
    3.9416  -17.0332   25.9159 C   0  0  0  0  0  0  0  0  0  0  0  0
    4.1090  -16.1293   27.1353 C   0  0  0  0  0  0  0  0  0  0  0  0
    3.0635  -15.0646   27.1583 C   0  0  0  0  0  0  0  0  0  0  0  0
    1.7543  -15.1402   28.2549 S   0  0  0  0  0  0  0  0  0  0  0  0
    1.0174  -13.8269   27.4491 C   0  0  0  0  0  0  0  0  0  0  0  0
    1.7287  -13.2521   26.5054 N   0  0  0  0  0  0  0  0  0  0  0  0
    2.9462  -13.9318   26.3714 C   0  0  0  0  0  0  0  0  0  0  0  0
    3.9411  -13.5075   25.3754 C   0  0  0  0  0  0  0  0  0  0  0  0
    4.9600  -14.0566   25.2549 O   0  0  0  0  0  0  0  0  0  0  0  0
    3.3245  -12.3678   24.5586 N   0  0  0  0  0  0  0  0  0  0  0  0
    3.7919  -11.7132   23.3441 C   0  0  0  0  0  0  0  0  0  0  0  0
    3.1450  -12.4942   22.2135 C   0  0  0  0  0  0  0  0  0  0  0  0
    5.2877  -11.8971   23.1978 C   0  0  0  0  0  0  0  0  0  0  0  0
    3.5526  -10.1989   23.2423 C   0  0  0  0  0  0  0  0  0  0  0  0
    2.2394   -9.8677   23.2495 F   0  0  0  0  0  0  0  0  0  0  0  0
    4.1336   -9.5224   24.2627 F   0  0  0  0  0  0  0  0  0  0  0  0
    4.0780   -9.6802   22.1019 F   0  0  0  0  0  0  0  0  0  0  0  0
  1  2  1  0
  2  3  1  0
  3  4  1  0
  4  5  1  0
  5  6  2  0
  6  7  1  0
  7  8  1  0
  8  9  2  0
  8 10  1  0
 10 11  1  0
 11 12  1  0
 11 13  1  0
 11 14  1  0
 14 15  1  0
 14 16  1  0
 14 17  1  0
  7  3  2  0
M  END
>  <inchikey>  (293) 
SDQUDGXEWGRTGK-UHFFFAOYSA-N

>  <tags>  (293) 
fragmenstein_placed,CpKRS_FrAncestor_bulkdock_iter2

>  <ref_pdb>  (293) 
x0540b

>  <energy_score>  (293) 
-66.089905

>  <distance_score>  (293) 
0.67219

>  <HIPPO Pose ID>  (293) 
54195

>  <ref_mols>  (293) 
x0504a

>  <smiles>  (293) 
CCc1scnc1C(=O)NC(C)(C)C(F)(F)F

>  <HIPPO Compound ID>  (293) 
151446

>  <alias>  (293) 
SDQUDGXEWGRTGK-UHFFFAOYSA-N-P48

>  <subsites>  (293) 


>  <placement_batch>  (293) 
CpKRS_FrAncestor_bulkdock_iter2

>  <name>  (293) 
SDQUDGXEWGRTGK-UHFFFAOYSA-N-P48

$$$$
NRKONCYRCRWOMX-UHFFFAOYSA-N-P49
     RDKit          3D

 17 17  0  0  0  0  0  0  0  0999 V2000
    5.3169  -16.4695   26.0547 C   0  0  0  0  0  0  0  0  0  0  0  0
    4.3880  -15.7552   26.3046 C   0  0  0  0  0  0  0  0  0  0  0  0
    3.2620  -14.9250   26.5473 C   0  0  0  0  0  0  0  0  0  0  0  0
    2.0257  -15.3509   27.6542 S   0  0  0  0  0  0  0  0  0  0  0  0
    1.1876  -13.9225   27.2454 C   0  0  0  0  0  0  0  0  0  0  0  0
    1.7362  -13.1540   26.3343 N   0  0  0  0  0  0  0  0  0  0  0  0
    2.9784  -13.7056   25.9545 C   0  0  0  0  0  0  0  0  0  0  0  0
    3.8434  -12.9815   24.9940 C   0  0  0  0  0  0  0  0  0  0  0  0
    4.8791  -13.3886   24.6531 O   0  0  0  0  0  0  0  0  0  0  0  0
    3.0685  -11.7335   24.5474 N   0  0  0  0  0  0  0  0  0  0  0  0
    3.4511  -10.6503   23.6394 C   0  0  0  0  0  0  0  0  0  0  0  0
    3.9983  -11.2671   22.3441 C   0  0  0  0  0  0  0  0  0  0  0  0
    2.1891   -9.8316   23.3372 C   0  0  0  0  0  0  0  0  0  0  0  0
    4.5237   -9.6910   24.2075 C   0  0  0  0  0  0  0  0  0  0  0  0
    5.6554  -10.3192   24.5709 F   0  0  0  0  0  0  0  0  0  0  0  0
    4.0714   -9.0235   25.2946 F   0  0  0  0  0  0  0  0  0  0  0  0
    4.8647   -8.7512   23.2873 F   0  0  0  0  0  0  0  0  0  0  0  0
  1  2  3  0
  2  3  1  0
  3  4  1  0
  4  5  1  0
  5  6  2  0
  6  7  1  0
  7  8  1  0
  8  9  2  0
  8 10  1  0
 10 11  1  0
 11 12  1  0
 11 13  1  0
 11 14  1  0
 14 15  1  0
 14 16  1  0
 14 17  1  0
  7  3  2  0
M  END
>  <inchikey>  (294) 
NRKONCYRCRWOMX-UHFFFAOYSA-N

>  <tags>  (294) 
fragmenstein_placed,CpKRS_FrAncestor_bulkdock_iter2

>  <ref_pdb>  (294) 
x0540b

>  <energy_score>  (294) 
-74.289841

>  <distance_score>  (294) 
0.555538

>  <HIPPO Pose ID>  (294) 
54199

>  <ref_mols>  (294) 
x0504b

>  <smiles>  (294) 
C#Cc1scnc1C(=O)NC(C)(C)C(F)(F)F

>  <HIPPO Compound ID>  (294) 
151453

>  <alias>  (294) 
NRKONCYRCRWOMX-UHFFFAOYSA-N-P49

>  <subsites>  (294) 


>  <placement_batch>  (294) 
CpKRS_FrAncestor_bulkdock_iter2

>  <name>  (294) 
NRKONCYRCRWOMX-UHFFFAOYSA-N-P49

$$$$
ALRSBYBZXHSDKC-UHFFFAOYSA-N-P49
     RDKit          3D

 16 16  0  0  0  0  0  0  0  0999 V2000
    5.2250  -16.3739   26.0919 C   0  0  0  0  0  0  0  0  0  0  0  0
    4.3158  -15.6128   26.2668 C   0  0  0  0  0  0  0  0  0  0  0  0
    3.2126  -14.7241   26.3936 C   0  0  0  0  0  0  0  0  0  0  0  0
    1.8859  -15.0473   27.4295 S   0  0  0  0  0  0  0  0  0  0  0  0
    1.1251  -13.6252   26.8706 C   0  0  0  0  0  0  0  0  0  0  0  0
    1.7678  -12.9258   25.9643 N   0  0  0  0  0  0  0  0  0  0  0  0
    3.0144  -13.5310   25.7123 C   0  0  0  0  0  0  0  0  0  0  0  0
    3.9798  -12.9022   24.7777 C   0  0  0  0  0  0  0  0  0  0  0  0
    5.0704  -13.2986   24.6701 O   0  0  0  0  0  0  0  0  0  0  0  0
    3.2556  -11.7619   24.0401 N   0  0  0  0  0  0  0  0  0  0  0  0
    3.7543  -10.7941   23.0693 C   0  0  2  0  0  0  0  0  0  0  0  0
    4.7178  -11.4904   22.1150 C   0  0  0  0  0  0  0  0  0  0  0  0
    4.3548   -9.5250   23.7138 C   0  0  0  0  0  0  0  0  0  0  0  0
    5.2644   -8.7002   22.8225 C   0  0  0  0  0  0  0  0  0  0  0  0
    5.0279   -9.8202   24.8532 F   0  0  0  0  0  0  0  0  0  0  0  0
    3.3167   -8.7093   24.0784 F   0  0  0  0  0  0  0  0  0  0  0  0
  1  2  3  0
  2  3  1  0
  3  4  1  0
  4  5  1  0
  5  6  2  0
  6  7  1  0
  7  8  1  0
  8  9  2  0
  8 10  1  0
 10 11  1  0
 11 12  1  1
 11 13  1  0
 13 14  1  0
 13 15  1  0
 13 16  1  0
  7  3  2  0
M  END
>  <inchikey>  (295) 
ALRSBYBZXHSDKC-UHFFFAOYSA-N

>  <tags>  (295) 
fragmenstein_placed,CpKRS_FrAncestor_bulkdock_iter2

>  <ref_pdb>  (295) 
x0540b

>  <energy_score>  (295) 
-69.592431

>  <distance_score>  (295) 
0.557566

>  <HIPPO Pose ID>  (295) 
54205

>  <ref_mols>  (295) 
x0504b

>  <smiles>  (295) 
C#Cc1scnc1C(=O)NC(C)C(C)(F)F

>  <HIPPO Compound ID>  (295) 
129249

>  <alias>  (295) 
ALRSBYBZXHSDKC-UHFFFAOYSA-N-P49

>  <subsites>  (295) 


>  <placement_batch>  (295) 
CpKRS_FrAncestor_bulkdock_iter2

>  <name>  (295) 
ALRSBYBZXHSDKC-UHFFFAOYSA-N-P49

$$$$
APPRXZDWKBBLBE-UHFFFAOYSA-N-P47
     RDKit          3D

 16 16  0  0  0  0  0  0  0  0999 V2000
    5.0090    2.2167   43.3770 C   0  0  0  0  0  0  0  0  0  0  0  0
    4.2568    2.8258   44.0855 C   0  0  0  0  0  0  0  0  0  0  0  0
    3.3970    3.6309   44.8901 C   0  0  0  0  0  0  0  0  0  0  0  0
    3.0689    3.2695   46.5289 S   0  0  0  0  0  0  0  0  0  0  0  0
    2.0922    4.6650   46.6349 C   0  0  0  0  0  0  0  0  0  0  0  0
    2.0064    5.3989   45.5464 N   0  0  0  0  0  0  0  0  0  0  0  0
    2.7361    4.7957   44.5129 C   0  0  0  0  0  0  0  0  0  0  0  0
    2.7946    5.4000   43.1588 C   0  0  0  0  0  0  0  0  0  0  0  0
    3.2910    4.8139   42.2841 O   0  0  0  0  0  0  0  0  0  0  0  0
    2.2022    6.8180   43.1982 N   0  0  0  0  0  0  0  0  0  0  0  0
    2.1798    7.8723   42.1740 C   0  0  0  0  0  0  0  0  0  0  0  0
    1.0834    7.6041   41.1366 C   0  0  0  0  0  0  0  0  0  0  0  0
    1.9009    9.2465   42.7912 C   0  0  0  0  0  0  0  0  0  0  0  0
    3.5497    7.8846   41.4604 C   0  0  0  0  0  0  0  0  0  0  0  0
    3.6394    8.9361   40.6090 F   0  0  0  0  0  0  0  0  0  0  0  0
    4.5453    8.0342   42.3789 F   0  0  0  0  0  0  0  0  0  0  0  0
  1  2  3  0
  2  3  1  0
  3  4  1  0
  4  5  1  0
  5  6  2  0
  6  7  1  0
  7  8  1  0
  8  9  2  0
  8 10  1  0
 10 11  1  0
 11 12  1  0
 11 13  1  0
 11 14  1  0
 14 15  1  0
 14 16  1  0
  7  3  2  0
M  END
>  <inchikey>  (296) 
APPRXZDWKBBLBE-UHFFFAOYSA-N

>  <tags>  (296) 
fragmenstein_placed,CpKRS_FrAncestor_bulkdock_iter2

>  <ref_pdb>  (296) 
x0540b

>  <energy_score>  (296) 
-47.841334

>  <distance_score>  (296) 
0.691792

>  <HIPPO Pose ID>  (296) 
54209

>  <ref_mols>  (296) 
x0504c

>  <smiles>  (296) 
C#Cc1scnc1C(=O)NC(C)(C)C(F)F

>  <HIPPO Compound ID>  (296) 
128881

>  <alias>  (296) 
APPRXZDWKBBLBE-UHFFFAOYSA-N-P47

>  <subsites>  (296) 


>  <placement_batch>  (296) 
CpKRS_FrAncestor_bulkdock_iter2

>  <name>  (296) 
APPRXZDWKBBLBE-UHFFFAOYSA-N-P47

$$$$
HVMDZJZSCHFLGA-UHFFFAOYSA-N-P48
     RDKit          3D

 15 15  0  0  0  0  0  0  0  0999 V2000
    5.4303  -16.5211   25.8902 C   0  0  0  0  0  0  0  0  0  0  0  0
    4.5518  -15.7918   26.2574 C   0  0  0  0  0  0  0  0  0  0  0  0
    3.4705  -14.9093   26.5285 C   0  0  0  0  0  0  0  0  0  0  0  0
    2.2022  -15.2678   27.6144 S   0  0  0  0  0  0  0  0  0  0  0  0
    1.3630  -13.8773   27.0751 C   0  0  0  0  0  0  0  0  0  0  0  0
    1.9746  -13.1425   26.1713 N   0  0  0  0  0  0  0  0  0  0  0  0
    3.2426  -13.6901   25.9127 C   0  0  0  0  0  0  0  0  0  0  0  0
    4.1792  -13.0214   24.9839 C   0  0  0  0  0  0  0  0  0  0  0  0
    5.3018  -13.3222   24.9184 O   0  0  0  0  0  0  0  0  0  0  0  0
    3.3664  -12.0251   24.1476 N   0  0  0  0  0  0  0  0  0  0  0  0
    3.7384  -11.2523   22.9857 C   0  0  2  0  0  0  0  0  0  0  0  0
    4.2366  -12.2062   21.9096 C   0  0  0  0  0  0  0  0  0  0  0  0
    4.8148  -10.1923   23.2407 C   0  0  2  0  0  0  0  0  0  0  0  0
    4.3840   -9.1450   24.2460 C   0  0  0  0  0  0  0  0  0  0  0  0
    5.0530   -9.5335   22.0652 F   0  0  0  0  0  0  0  0  0  0  0  0
  1  2  3  0
  2  3  1  0
  3  4  1  0
  4  5  1  0
  5  6  2  0
  6  7  1  0
  7  8  1  0
  8  9  2  0
  8 10  1  0
 10 11  1  0
 11 12  1  6
 11 13  1  0
 13 14  1  1
 13 15  1  0
  7  3  2  0
M  END
>  <inchikey>  (297) 
HVMDZJZSCHFLGA-UHFFFAOYSA-N

>  <tags>  (297) 
fragmenstein_placed,CpKRS_FrAncestor_bulkdock_iter2

>  <ref_pdb>  (297) 
x0540b

>  <energy_score>  (297) 
-67.936809

>  <distance_score>  (297) 
0.534614

>  <HIPPO Pose ID>  (297) 
54210

>  <ref_mols>  (297) 
x0504a

>  <smiles>  (297) 
C#Cc1scnc1C(=O)NC(C)C(C)F

>  <HIPPO Compound ID>  (297) 
309572

>  <alias>  (297) 
HVMDZJZSCHFLGA-UHFFFAOYSA-N-P48

>  <subsites>  (297) 


>  <placement_batch>  (297) 
CpKRS_FrAncestor_bulkdock_iter2

>  <name>  (297) 
HVMDZJZSCHFLGA-UHFFFAOYSA-N-P48

$$$$
JBCSHLJXGMCRTK-UHFFFAOYSA-N-P49
     RDKit          3D

 16 16  0  0  0  0  0  0  0  0999 V2000
    4.1298  -16.9972   25.7566 C   0  0  0  0  0  0  0  0  0  0  0  0
    4.3277  -15.8504   26.7347 C   0  0  0  0  0  0  0  0  0  0  0  0
    3.1817  -14.8929   26.6761 C   0  0  0  0  0  0  0  0  0  0  0  0
    1.8215  -15.1384   27.6995 S   0  0  0  0  0  0  0  0  0  0  0  0
    1.0822  -13.7562   27.0315 C   0  0  0  0  0  0  0  0  0  0  0  0
    1.7510  -13.1224   26.0985 N   0  0  0  0  0  0  0  0  0  0  0  0
    2.9908  -13.7594   25.8967 C   0  0  0  0  0  0  0  0  0  0  0  0
    3.9566  -13.1899   24.9260 C   0  0  0  0  0  0  0  0  0  0  0  0
    5.0054  -13.6596   24.7385 O   0  0  0  0  0  0  0  0  0  0  0  0
    3.2944  -11.9516   24.3031 N   0  0  0  0  0  0  0  0  0  0  0  0
    3.8234  -10.9617   23.3763 C   0  0  2  0  0  0  0  0  0  0  0  0
    4.4220  -11.6440   22.1542 C   0  0  0  0  0  0  0  0  0  0  0  0
    4.8415   -9.9899   23.9876 C   0  0  0  0  0  0  0  0  0  0  0  0
    5.1582   -9.0130   23.1011 F   0  0  0  0  0  0  0  0  0  0  0  0
    5.9859  -10.5925   24.3605 F   0  0  0  0  0  0  0  0  0  0  0  0
    4.3339   -9.3717   25.0784 F   0  0  0  0  0  0  0  0  0  0  0  0
  1  2  1  0
  2  3  1  0
  3  4  1  0
  4  5  1  0
  5  6  2  0
  6  7  1  0
  7  8  1  0
  8  9  2  0
  8 10  1  0
 10 11  1  0
 11 12  1  6
 11 13  1  0
 13 14  1  0
 13 15  1  0
 13 16  1  0
  7  3  2  0
M  END
>  <inchikey>  (298) 
JBCSHLJXGMCRTK-UHFFFAOYSA-N

>  <tags>  (298) 
fragmenstein_placed,CpKRS_FrAncestor_bulkdock_iter2

>  <ref_pdb>  (298) 
x0540b

>  <energy_score>  (298) 
-37.073096

>  <distance_score>  (298) 
0.335079

>  <HIPPO Pose ID>  (298) 
54214

>  <ref_mols>  (298) 
x0504b

>  <smiles>  (298) 
CCc1scnc1C(=O)NC(C)C(F)(F)F

>  <HIPPO Compound ID>  (298) 
122215

>  <alias>  (298) 
JBCSHLJXGMCRTK-UHFFFAOYSA-N-P49

>  <subsites>  (298) 


>  <placement_batch>  (298) 
CpKRS_FrAncestor_bulkdock_iter2

>  <name>  (298) 
JBCSHLJXGMCRTK-UHFFFAOYSA-N-P49

$$$$
FAOWFESPSGKMFP-UHFFFAOYSA-N-P49
     RDKit          3D

 15 15  0  0  0  0  0  0  0  0999 V2000
    5.1749  -16.6590   26.0562 C   0  0  0  0  0  0  0  0  0  0  0  0
    4.2869  -15.8818   26.2643 C   0  0  0  0  0  0  0  0  0  0  0  0
    3.2194  -14.9608   26.4377 C   0  0  0  0  0  0  0  0  0  0  0  0
    1.9513  -15.2129   27.5611 S   0  0  0  0  0  0  0  0  0  0  0  0
    1.2261  -13.7563   27.0453 C   0  0  0  0  0  0  0  0  0  0  0  0
    1.8376  -13.0967   26.0892 N   0  0  0  0  0  0  0  0  0  0  0  0
    3.0288  -13.7718   25.7512 C   0  0  0  0  0  0  0  0  0  0  0  0
    3.9568  -13.1983   24.7468 C   0  0  0  0  0  0  0  0  0  0  0  0
    4.9583  -13.7186   24.4632 O   0  0  0  0  0  0  0  0  0  0  0  0
    3.3577  -11.8691   24.2714 N   0  0  0  0  0  0  0  0  0  0  0  0
    3.8190  -10.9374   23.2709 C   0  0  0  0  0  0  0  0  0  0  0  0
    4.8865   -9.9736   23.7995 C   0  0  0  0  0  0  0  0  0  0  0  0
    5.4004   -9.0337   22.7294 C   0  0  0  0  0  0  0  0  0  0  0  0
    4.3680   -9.2328   24.8148 F   0  0  0  0  0  0  0  0  0  0  0  0
    5.9331  -10.6557   24.3232 F   0  0  0  0  0  0  0  0  0  0  0  0
  1  2  3  0
  2  3  1  0
  3  4  1  0
  4  5  1  0
  5  6  2  0
  6  7  1  0
  7  8  1  0
  8  9  2  0
  8 10  1  0
 10 11  1  0
 11 12  1  0
 12 13  1  0
 12 14  1  0
 12 15  1  0
  7  3  2  0
M  END
>  <inchikey>  (299) 
FAOWFESPSGKMFP-UHFFFAOYSA-N

>  <tags>  (299) 
fragmenstein_placed,CpKRS_FrAncestor_bulkdock_iter2

>  <ref_pdb>  (299) 
x0540b

>  <energy_score>  (299) 
-32.731852

>  <distance_score>  (299) 
0.422931

>  <HIPPO Pose ID>  (299) 
54220

>  <ref_mols>  (299) 
x0504b

>  <smiles>  (299) 
C#Cc1scnc1C(=O)NCC(C)(F)F

>  <HIPPO Compound ID>  (299) 
308397

>  <alias>  (299) 
FAOWFESPSGKMFP-UHFFFAOYSA-N-P49

>  <subsites>  (299) 


>  <placement_batch>  (299) 
CpKRS_FrAncestor_bulkdock_iter2

>  <name>  (299) 
FAOWFESPSGKMFP-UHFFFAOYSA-N-P49

$$$$
JOFPZEDUYOFVMD-UHFFFAOYSA-N-P49
     RDKit          3D

 14 14  0  0  0  0  0  0  0  0999 V2000
    5.2529  -16.4950   26.0595 C   0  0  0  0  0  0  0  0  0  0  0  0
    4.3363  -15.7493   26.2589 C   0  0  0  0  0  0  0  0  0  0  0  0
    3.2296  -14.8754   26.4330 C   0  0  0  0  0  0  0  0  0  0  0  0
    1.9823  -15.1858   27.5668 S   0  0  0  0  0  0  0  0  0  0  0  0
    1.1880  -13.7637   27.0585 C   0  0  0  0  0  0  0  0  0  0  0  0
    1.7583  -13.0797   26.0946 N   0  0  0  0  0  0  0  0  0  0  0  0
    2.9766  -13.6981   25.7454 C   0  0  0  0  0  0  0  0  0  0  0  0
    3.8598  -13.0840   24.7233 C   0  0  0  0  0  0  0  0  0  0  0  0
    4.8597  -13.5798   24.3925 O   0  0  0  0  0  0  0  0  0  0  0  0
    3.1763  -11.7997   24.2336 N   0  0  0  0  0  0  0  0  0  0  0  0
    3.6233  -10.8003   23.2990 C   0  0  0  0  0  0  0  0  0  0  0  0
    4.8832  -10.0780   23.7762 C   0  0  1  0  0  0  0  0  0  0  0  0
    5.4081   -9.1102   22.7319 C   0  0  0  0  0  0  0  0  0  0  0  0
    4.5797   -9.3563   24.8942 F   0  0  0  0  0  0  0  0  0  0  0  0
  1  2  3  0
  2  3  1  0
  3  4  1  0
  4  5  1  0
  5  6  2  0
  6  7  1  0
  7  8  1  0
  8  9  2  0
  8 10  1  0
 10 11  1  0
 11 12  1  0
 12 13  1  6
 12 14  1  0
  7  3  2  0
M  END
>  <inchikey>  (300) 
JOFPZEDUYOFVMD-UHFFFAOYSA-N

>  <tags>  (300) 
fragmenstein_placed,CpKRS_FrAncestor_bulkdock_iter2

>  <ref_pdb>  (300) 
x0540b

>  <energy_score>  (300) 
-46.736142

>  <distance_score>  (300) 
0.442507

>  <HIPPO Pose ID>  (300) 
54229

>  <ref_mols>  (300) 
x0504b

>  <smiles>  (300) 
C#Cc1scnc1C(=O)NCC(C)F

>  <HIPPO Compound ID>  (300) 
449136

>  <alias>  (300) 
JOFPZEDUYOFVMD-UHFFFAOYSA-N-P49

>  <subsites>  (300) 


>  <placement_batch>  (300) 
CpKRS_FrAncestor_bulkdock_iter2

>  <name>  (300) 
JOFPZEDUYOFVMD-UHFFFAOYSA-N-P49

$$$$
GCTRDNLDIIGDCJ-UHFFFAOYSA-N-P49
     RDKit          3D

 14 14  0  0  0  0  0  0  0  0999 V2000
    5.2878  -16.4717   26.0495 C   0  0  0  0  0  0  0  0  0  0  0  0
    4.3714  -15.7258   26.2486 C   0  0  0  0  0  0  0  0  0  0  0  0
    3.2612  -14.8579   26.4284 C   0  0  0  0  0  0  0  0  0  0  0  0
    2.0170  -15.1840   27.5619 S   0  0  0  0  0  0  0  0  0  0  0  0
    1.2128  -13.7640   27.0646 C   0  0  0  0  0  0  0  0  0  0  0  0
    1.7770  -13.0702   26.1040 N   0  0  0  0  0  0  0  0  0  0  0  0
    2.9999  -13.6782   25.7483 C   0  0  0  0  0  0  0  0  0  0  0  0
    3.8695  -13.0542   24.7199 C   0  0  0  0  0  0  0  0  0  0  0  0
    4.8643  -13.5444   24.3668 O   0  0  0  0  0  0  0  0  0  0  0  0
    3.1811  -11.7621   24.2634 N   0  0  0  0  0  0  0  0  0  0  0  0
    3.5183  -10.8494   23.2140 C   0  0  0  0  0  0  0  0  0  0  0  0
    4.5138   -9.8445   23.7101 C   0  0  0  0  0  0  0  0  0  0  0  0
    5.5188   -9.3572   22.9727 C   0  0  0  0  0  0  0  0  0  0  0  0
    4.4051   -9.3867   24.9792 F   0  0  0  0  0  0  0  0  0  0  0  0
  1  2  3  0
  2  3  1  0
  3  4  1  0
  4  5  1  0
  5  6  2  0
  6  7  1  0
  7  8  1  0
  8  9  2  0
  8 10  1  0
 10 11  1  0
 11 12  1  0
 12 13  2  0
 12 14  1  0
  7  3  2  0
M  END
>  <inchikey>  (301) 
GCTRDNLDIIGDCJ-UHFFFAOYSA-N

>  <tags>  (301) 
fragmenstein_placed,CpKRS_FrAncestor_bulkdock_iter2

>  <ref_pdb>  (301) 
x0540b

>  <energy_score>  (301) 
-37.598953

>  <distance_score>  (301) 
0.461132

>  <HIPPO Pose ID>  (301) 
54232

>  <ref_mols>  (301) 
x0504b

>  <smiles>  (301) 
C#Cc1scnc1C(=O)NCC(=C)F

>  <HIPPO Compound ID>  (301) 
449137

>  <alias>  (301) 
GCTRDNLDIIGDCJ-UHFFFAOYSA-N-P49

>  <subsites>  (301) 


>  <placement_batch>  (301) 
CpKRS_FrAncestor_bulkdock_iter2

>  <name>  (301) 
GCTRDNLDIIGDCJ-UHFFFAOYSA-N-P49

$$$$
IRYGJSNAOHKODG-UHFFFAOYSA-N-P49
     RDKit          3D

 16 16  0  0  0  0  0  0  0  0999 V2000
    5.2461  -16.6049   26.0569 C   0  0  0  0  0  0  0  0  0  0  0  0
    4.3460  -15.8454   26.2777 C   0  0  0  0  0  0  0  0  0  0  0  0
    3.2595  -14.9512   26.4695 C   0  0  0  0  0  0  0  0  0  0  0  0
    2.0127  -15.2401   27.6081 S   0  0  0  0  0  0  0  0  0  0  0  0
    1.2397  -13.8050   27.1022 C   0  0  0  0  0  0  0  0  0  0  0  0
    1.8186  -13.1297   26.1368 N   0  0  0  0  0  0  0  0  0  0  0  0
    3.0268  -13.7682   25.7865 C   0  0  0  0  0  0  0  0  0  0  0  0
    3.9172  -13.1726   24.7611 C   0  0  0  0  0  0  0  0  0  0  0  0
    4.9448  -13.6416   24.4822 O   0  0  0  0  0  0  0  0  0  0  0  0
    3.2242  -11.9128   24.2326 N   0  0  0  0  0  0  0  0  0  0  0  0
    3.6006  -11.0156   23.1858 C   0  0  0  0  0  0  0  0  0  0  0  0
    4.3567   -9.8512   23.7604 C   0  0  0  0  0  0  0  0  0  0  0  0
    4.2322   -9.6139   25.0891 F   0  0  0  0  0  0  0  0  0  0  0  0
    5.1535   -9.0150   23.0671 C   0  0  0  0  0  0  0  0  0  0  0  0
    5.4033   -9.1156   21.5912 C   0  0  0  0  0  0  0  0  0  0  0  0
    5.8736   -7.8876   23.7553 C   0  0  0  0  0  0  0  0  0  0  0  0
  1  2  3  0
  2  3  1  0
  3  4  1  0
  4  5  1  0
  5  6  2  0
  6  7  1  0
  7  8  1  0
  8  9  2  0
  8 10  1  0
 10 11  1  0
 11 12  1  0
 12 13  1  0
 12 14  2  3
 14 15  1  0
 14 16  1  0
  7  3  2  0
M  END
>  <inchikey>  (302) 
IRYGJSNAOHKODG-UHFFFAOYSA-N

>  <tags>  (302) 
fragmenstein_placed,CpKRS_FrAncestor_bulkdock_iter2

>  <ref_pdb>  (302) 
x0540b

>  <energy_score>  (302) 
-56.071226

>  <distance_score>  (302) 
0.328276

>  <HIPPO Pose ID>  (302) 
54235

>  <ref_mols>  (302) 
x0504b

>  <smiles>  (302) 
C#Cc1scnc1C(=O)NCC(F)=C(C)C

>  <HIPPO Compound ID>  (302) 
130604

>  <alias>  (302) 
IRYGJSNAOHKODG-UHFFFAOYSA-N-P49

>  <subsites>  (302) 


>  <placement_batch>  (302) 
CpKRS_FrAncestor_bulkdock_iter2

>  <name>  (302) 
IRYGJSNAOHKODG-UHFFFAOYSA-N-P49

$$$$
XCDKUZFLNYQZTC-UHFFFAOYSA-N-P48
     RDKit          3D

 14 14  0  0  0  0  0  0  0  0999 V2000
    5.4372  -16.5383   25.8601 C   0  0  0  0  0  0  0  0  0  0  0  0
    4.5405  -15.8262   26.2170 C   0  0  0  0  0  0  0  0  0  0  0  0
    3.4393  -14.9705   26.4937 C   0  0  0  0  0  0  0  0  0  0  0  0
    2.2622  -15.3023   27.6871 S   0  0  0  0  0  0  0  0  0  0  0  0
    1.3535  -13.9552   27.1507 C   0  0  0  0  0  0  0  0  0  0  0  0
    1.8781  -13.2518   26.1707 N   0  0  0  0  0  0  0  0  0  0  0  0
    3.1246  -13.8012   25.8213 C   0  0  0  0  0  0  0  0  0  0  0  0
    3.9589  -13.1628   24.7787 C   0  0  0  0  0  0  0  0  0  0  0  0
    5.0523  -13.5000   24.5697 O   0  0  0  0  0  0  0  0  0  0  0  0
    3.1151  -12.0664   24.1212 N   0  0  0  0  0  0  0  0  0  0  0  0
    3.4030  -11.2094   22.9977 C   0  0  0  0  0  0  0  0  0  0  0  0
    4.6680  -10.3708   23.1898 C   0  0  2  0  0  0  0  0  0  0  0  0
    4.4039   -9.3848   24.0949 F   0  0  0  0  0  0  0  0  0  0  0  0
    5.1528   -9.5850   21.6716 Cl  0  0  0  0  0  0  0  0  0  0  0  0
  1  2  3  0
  2  3  1  0
  3  4  1  0
  4  5  1  0
  5  6  2  0
  6  7  1  0
  7  8  1  0
  8  9  2  0
  8 10  1  0
 10 11  1  0
 11 12  1  0
 12 13  1  1
 12 14  1  0
  7  3  2  0
M  END
>  <inchikey>  (303) 
XCDKUZFLNYQZTC-UHFFFAOYSA-N

>  <tags>  (303) 
fragmenstein_placed,CpKRS_FrAncestor_bulkdock_iter2

>  <ref_pdb>  (303) 
x0540b

>  <energy_score>  (303) 
-43.299532

>  <distance_score>  (303) 
0.443833

>  <HIPPO Pose ID>  (303) 
54237

>  <ref_mols>  (303) 
x0504a

>  <smiles>  (303) 
C#Cc1scnc1C(=O)NCC(F)Cl

>  <HIPPO Compound ID>  (303) 
449138

>  <alias>  (303) 
XCDKUZFLNYQZTC-UHFFFAOYSA-N-P48

>  <subsites>  (303) 


>  <placement_batch>  (303) 
CpKRS_FrAncestor_bulkdock_iter2

>  <name>  (303) 
XCDKUZFLNYQZTC-UHFFFAOYSA-N-P48

$$$$
FJYUFSUCYGTOEO-UHFFFAOYSA-N-P49
     RDKit          3D

 15 15  0  0  0  0  0  0  0  0999 V2000
    4.9296  -17.0172   26.0171 C   0  0  0  0  0  0  0  0  0  0  0  0
    4.1655  -16.1221   26.2424 C   0  0  0  0  0  0  0  0  0  0  0  0
    3.2139  -15.0808   26.4012 C   0  0  0  0  0  0  0  0  0  0  0  0
    1.8708  -15.1937   27.4566 S   0  0  0  0  0  0  0  0  0  0  0  0
    1.3062  -13.6914   26.8717 C   0  0  0  0  0  0  0  0  0  0  0  0
    2.0338  -13.1075   25.9471 N   0  0  0  0  0  0  0  0  0  0  0  0
    3.1902  -13.8783   25.7160 C   0  0  0  0  0  0  0  0  0  0  0  0
    4.2443  -13.3935   24.7957 C   0  0  0  0  0  0  0  0  0  0  0  0
    5.2839  -13.9091   24.7161 O   0  0  0  0  0  0  0  0  0  0  0  0
    3.6801  -12.1769   24.0560 N   0  0  0  0  0  0  0  0  0  0  0  0
    4.3097  -11.2696   23.1224 C   0  0  0  0  0  0  0  0  0  0  0  0
    4.3818   -9.8227   23.6076 C   0  0  0  0  0  0  0  0  0  0  0  0
    4.9917   -9.7345   24.8147 F   0  0  0  0  0  0  0  0  0  0  0  0
    5.1217   -9.0788   22.7451 F   0  0  0  0  0  0  0  0  0  0  0  0
    2.5879   -9.0648   23.7110 Br  0  0  0  0  0  0  0  0  0  0  0  0
  1  2  3  0
  2  3  1  0
  3  4  1  0
  4  5  1  0
  5  6  2  0
  6  7  1  0
  7  8  1  0
  8  9  2  0
  8 10  1  0
 10 11  1  0
 11 12  1  0
 12 13  1  0
 12 14  1  0
 12 15  1  0
  7  3  2  0
M  END
>  <inchikey>  (304) 
FJYUFSUCYGTOEO-UHFFFAOYSA-N

>  <tags>  (304) 
fragmenstein_placed,CpKRS_FrAncestor_bulkdock_iter2

>  <ref_pdb>  (304) 
x0540b

>  <energy_score>  (304) 
-64.186149

>  <distance_score>  (304) 
0.446898

>  <HIPPO Pose ID>  (304) 
54241

>  <ref_mols>  (304) 
x0504b

>  <smiles>  (304) 
C#Cc1scnc1C(=O)NCC(F)(F)Br

>  <HIPPO Compound ID>  (304) 
308316

>  <alias>  (304) 
FJYUFSUCYGTOEO-UHFFFAOYSA-N-P49

>  <subsites>  (304) 


>  <placement_batch>  (304) 
CpKRS_FrAncestor_bulkdock_iter2

>  <name>  (304) 
FJYUFSUCYGTOEO-UHFFFAOYSA-N-P49

$$$$
JMGIIVJVWDHXHP-UHFFFAOYSA-N-P49
     RDKit          3D

 15 15  0  0  0  0  0  0  0  0999 V2000
    4.9170  -16.9929   26.0181 C   0  0  0  0  0  0  0  0  0  0  0  0
    4.1472  -16.1011   26.2376 C   0  0  0  0  0  0  0  0  0  0  0  0
    3.1910  -15.0636   26.3958 C   0  0  0  0  0  0  0  0  0  0  0  0
    1.8406  -15.1891   27.4404 S   0  0  0  0  0  0  0  0  0  0  0  0
    1.2809  -13.6788   26.8718 C   0  0  0  0  0  0  0  0  0  0  0  0
    2.0164  -13.0814   25.9621 N   0  0  0  0  0  0  0  0  0  0  0  0
    3.1707  -13.8531   25.7241 C   0  0  0  0  0  0  0  0  0  0  0  0
    4.2336  -13.3546   24.8216 C   0  0  0  0  0  0  0  0  0  0  0  0
    5.2810  -13.8577   24.7643 O   0  0  0  0  0  0  0  0  0  0  0  0
    3.6972  -12.0963   24.1318 N   0  0  0  0  0  0  0  0  0  0  0  0
    4.3069  -11.2337   23.1439 C   0  0  0  0  0  0  0  0  0  0  0  0
    4.4168   -9.7667   23.5649 C   0  0  0  0  0  0  0  0  0  0  0  0
    5.2149   -9.0938   22.6957 F   0  0  0  0  0  0  0  0  0  0  0  0
    4.9975   -9.6526   24.7861 F   0  0  0  0  0  0  0  0  0  0  0  0
    2.8209   -8.9796   23.5890 Cl  0  0  0  0  0  0  0  0  0  0  0  0
  1  2  3  0
  2  3  1  0
  3  4  1  0
  4  5  1  0
  5  6  2  0
  6  7  1  0
  7  8  1  0
  8  9  2  0
  8 10  1  0
 10 11  1  0
 11 12  1  0
 12 13  1  0
 12 14  1  0
 12 15  1  0
  7  3  2  0
M  END
>  <inchikey>  (305) 
JMGIIVJVWDHXHP-UHFFFAOYSA-N

>  <tags>  (305) 
fragmenstein_placed,CpKRS_FrAncestor_bulkdock_iter2

>  <ref_pdb>  (305) 
x0540b

>  <energy_score>  (305) 
-60.591673

>  <distance_score>  (305) 
0.441679

>  <HIPPO Pose ID>  (305) 
54244

>  <ref_mols>  (305) 
x0504b

>  <smiles>  (305) 
C#Cc1scnc1C(=O)NCC(F)(F)Cl

>  <HIPPO Compound ID>  (305) 
309158

>  <alias>  (305) 
JMGIIVJVWDHXHP-UHFFFAOYSA-N-P49

>  <subsites>  (305) 


>  <placement_batch>  (305) 
CpKRS_FrAncestor_bulkdock_iter2

>  <name>  (305) 
JMGIIVJVWDHXHP-UHFFFAOYSA-N-P49

$$$$
BCRBTJSNZJCATO-UHFFFAOYSA-N-P49
     RDKit          3D

 15 15  0  0  0  0  0  0  0  0999 V2000
    4.0625  -17.0450   25.7426 C   0  0  0  0  0  0  0  0  0  0  0  0
    4.2423  -15.9197   26.7495 C   0  0  0  0  0  0  0  0  0  0  0  0
    3.1605  -14.8981   26.6035 C   0  0  0  0  0  0  0  0  0  0  0  0
    1.7358  -15.0294   27.5567 S   0  0  0  0  0  0  0  0  0  0  0  0
    1.1134  -13.6347   26.7988 C   0  0  0  0  0  0  0  0  0  0  0  0
    1.8705  -13.0731   25.8861 N   0  0  0  0  0  0  0  0  0  0  0  0
    3.0806  -13.7825   25.7793 C   0  0  0  0  0  0  0  0  0  0  0  0
    4.1384  -13.3046   24.8546 C   0  0  0  0  0  0  0  0  0  0  0  0
    5.1736  -13.8317   24.7766 O   0  0  0  0  0  0  0  0  0  0  0  0
    3.6122  -12.0384   24.1651 N   0  0  0  0  0  0  0  0  0  0  0  0
    4.2177  -11.1969   23.1531 C   0  0  0  0  0  0  0  0  0  0  0  0
    4.4349   -9.7420   23.5672 C   0  0  0  0  0  0  0  0  0  0  0  0
    4.9382   -9.6291   24.8154 F   0  0  0  0  0  0  0  0  0  0  0  0
    5.2966   -9.1224   22.7267 F   0  0  0  0  0  0  0  0  0  0  0  0
    3.2757   -9.0360   23.5207 F   0  0  0  0  0  0  0  0  0  0  0  0
  1  2  1  0
  2  3  1  0
  3  4  1  0
  4  5  1  0
  5  6  2  0
  6  7  1  0
  7  8  1  0
  8  9  2  0
  8 10  1  0
 10 11  1  0
 11 12  1  0
 12 13  1  0
 12 14  1  0
 12 15  1  0
  7  3  2  0
M  END
>  <inchikey>  (306) 
BCRBTJSNZJCATO-UHFFFAOYSA-N

>  <tags>  (306) 
fragmenstein_placed,CpKRS_FrAncestor_bulkdock_iter2

>  <ref_pdb>  (306) 
x0540b

>  <energy_score>  (306) 
-66.227231

>  <distance_score>  (306) 
0.412759

>  <HIPPO Pose ID>  (306) 
54247

>  <ref_mols>  (306) 
x0504b

>  <smiles>  (306) 
CCc1scnc1C(=O)NCC(F)(F)F

>  <HIPPO Compound ID>  (306) 
449139

>  <alias>  (306) 
BCRBTJSNZJCATO-UHFFFAOYSA-N-P49

>  <subsites>  (306) 


>  <placement_batch>  (306) 
CpKRS_FrAncestor_bulkdock_iter2

>  <name>  (306) 
BCRBTJSNZJCATO-UHFFFAOYSA-N-P49

$$$$
KBCZXAPAEFMTMX-UHFFFAOYSA-N-P49
     RDKit          3D

 15 15  0  0  0  0  0  0  0  0999 V2000
    5.1456  -16.6427   26.0706 C   0  0  0  0  0  0  0  0  0  0  0  0
    4.2759  -15.8391   26.2544 C   0  0  0  0  0  0  0  0  0  0  0  0
    3.2264  -14.8891   26.3765 C   0  0  0  0  0  0  0  0  0  0  0  0
    1.8772  -15.1191   27.4056 S   0  0  0  0  0  0  0  0  0  0  0  0
    1.2096  -13.6566   26.8292 C   0  0  0  0  0  0  0  0  0  0  0  0
    1.9035  -13.0055   25.9235 N   0  0  0  0  0  0  0  0  0  0  0  0
    3.1114  -13.6907   25.6889 C   0  0  0  0  0  0  0  0  0  0  0  0
    4.1333  -13.1231   24.7770 C   0  0  0  0  0  0  0  0  0  0  0  0
    5.2020  -13.5762   24.6981 O   0  0  0  0  0  0  0  0  0  0  0  0
    3.5222  -11.8939   24.0942 N   0  0  0  0  0  0  0  0  0  0  0  0
    4.0688  -11.0076   23.0889 C   0  0  0  0  0  0  0  0  0  0  0  0
    4.3895   -9.5950   23.5721 C   0  0  0  0  0  0  0  0  0  0  0  0
    5.2810   -8.9938   22.7493 F   0  0  0  0  0  0  0  0  0  0  0  0
    3.2771   -8.8136   23.5697 F   0  0  0  0  0  0  0  0  0  0  0  0
    4.9101   -9.5744   24.8175 F   0  0  0  0  0  0  0  0  0  0  0  0
  1  2  3  0
  2  3  1  0
  3  4  1  0
  4  5  1  0
  5  6  2  0
  6  7  1  0
  7  8  1  0
  8  9  2  0
  8 10  1  0
 10 11  1  0
 11 12  1  0
 12 13  1  0
 12 14  1  0
 12 15  1  0
  7  3  2  0
M  END
>  <inchikey>  (307) 
KBCZXAPAEFMTMX-UHFFFAOYSA-N

>  <tags>  (307) 
fragmenstein_placed,CpKRS_FrAncestor_bulkdock_iter2

>  <ref_pdb>  (307) 
x0540b

>  <energy_score>  (307) 
-55.112631

>  <distance_score>  (307) 
0.39596

>  <HIPPO Pose ID>  (307) 
54250

>  <ref_mols>  (307) 
x0504b

>  <smiles>  (307) 
C#Cc1scnc1C(=O)NCC(F)(F)F

>  <HIPPO Compound ID>  (307) 
307114

>  <alias>  (307) 
KBCZXAPAEFMTMX-UHFFFAOYSA-N-P49

>  <subsites>  (307) 


>  <placement_batch>  (307) 
CpKRS_FrAncestor_bulkdock_iter2

>  <name>  (307) 
KBCZXAPAEFMTMX-UHFFFAOYSA-N-P49

$$$$
MGIFIAQGLKJQBF-UHFFFAOYSA-N-P49
     RDKit          3D

 14 14  0  0  0  0  0  0  0  0999 V2000
    5.2003  -16.6741   26.0565 C   0  0  0  0  0  0  0  0  0  0  0  0
    4.3114  -15.8991   26.2686 C   0  0  0  0  0  0  0  0  0  0  0  0
    3.2405  -14.9818   26.4365 C   0  0  0  0  0  0  0  0  0  0  0  0
    1.9309  -15.2632   27.5027 S   0  0  0  0  0  0  0  0  0  0  0  0
    1.2140  -13.8034   26.9830 C   0  0  0  0  0  0  0  0  0  0  0  0
    1.8619  -13.1181   26.0692 N   0  0  0  0  0  0  0  0  0  0  0  0
    3.0762  -13.7744   25.7778 C   0  0  0  0  0  0  0  0  0  0  0  0
    4.0543  -13.1591   24.8502 C   0  0  0  0  0  0  0  0  0  0  0  0
    5.1265  -13.5870   24.7057 O   0  0  0  0  0  0  0  0  0  0  0  0
    3.3991  -11.9018   24.2670 N   0  0  0  0  0  0  0  0  0  0  0  0
    3.8923  -10.9495   23.3042 C   0  0  0  0  0  0  0  0  0  0  0  0
    4.3015   -9.6250   23.9334 C   0  0  0  0  0  0  0  0  0  0  0  0
    4.7033   -8.7617   22.9642 F   0  0  0  0  0  0  0  0  0  0  0  0
    5.3524   -9.7819   24.7718 F   0  0  0  0  0  0  0  0  0  0  0  0
  1  2  3  0
  2  3  1  0
  3  4  1  0
  4  5  1  0
  5  6  2  0
  6  7  1  0
  7  8  1  0
  8  9  2  0
  8 10  1  0
 10 11  1  0
 11 12  1  0
 12 13  1  0
 12 14  1  0
  7  3  2  0
M  END
>  <inchikey>  (308) 
MGIFIAQGLKJQBF-UHFFFAOYSA-N

>  <tags>  (308) 
fragmenstein_placed,CpKRS_FrAncestor_bulkdock_iter2

>  <ref_pdb>  (308) 
x0540b

>  <energy_score>  (308) 
-47.595568

>  <distance_score>  (308) 
0.420544

>  <HIPPO Pose ID>  (308) 
54253

>  <ref_mols>  (308) 
x0504b

>  <smiles>  (308) 
C#Cc1scnc1C(=O)NCC(F)F

>  <HIPPO Compound ID>  (308) 
449140

>  <alias>  (308) 
MGIFIAQGLKJQBF-UHFFFAOYSA-N-P49

>  <subsites>  (308) 


>  <placement_batch>  (308) 
CpKRS_FrAncestor_bulkdock_iter2

>  <name>  (308) 
MGIFIAQGLKJQBF-UHFFFAOYSA-N-P49

$$$$
ZDBMHEXXPAPNAL-UHFFFAOYSA-N-P49
     RDKit          3D

 13 13  0  0  0  0  0  0  0  0999 V2000
    5.2432  -16.5152   26.0583 C   0  0  0  0  0  0  0  0  0  0  0  0
    4.3309  -15.7658   26.2634 C   0  0  0  0  0  0  0  0  0  0  0  0
    3.2294  -14.8871   26.4464 C   0  0  0  0  0  0  0  0  0  0  0  0
    1.9891  -15.1916   27.5892 S   0  0  0  0  0  0  0  0  0  0  0  0
    1.1985  -13.7649   27.0877 C   0  0  0  0  0  0  0  0  0  0  0  0
    1.7662  -13.0821   26.1213 N   0  0  0  0  0  0  0  0  0  0  0  0
    2.9756  -13.7099   25.7589 C   0  0  0  0  0  0  0  0  0  0  0  0
    3.8511  -13.1039   24.7261 C   0  0  0  0  0  0  0  0  0  0  0  0
    4.8718  -13.5765   24.4259 O   0  0  0  0  0  0  0  0  0  0  0  0
    3.1472  -11.8428   24.2059 N   0  0  0  0  0  0  0  0  0  0  0  0
    3.5915  -10.8417   23.2729 C   0  0  0  0  0  0  0  0  0  0  0  0
    4.8586  -10.1337   23.7300 C   0  0  0  0  0  0  0  0  0  0  0  0
    4.5883   -9.3815   24.8321 F   0  0  0  0  0  0  0  0  0  0  0  0
  1  2  3  0
  2  3  1  0
  3  4  1  0
  4  5  1  0
  5  6  2  0
  6  7  1  0
  7  8  1  0
  8  9  2  0
  8 10  1  0
 10 11  1  0
 11 12  1  0
 12 13  1  0
  7  3  2  0
M  END
>  <inchikey>  (309) 
ZDBMHEXXPAPNAL-UHFFFAOYSA-N

>  <tags>  (309) 
fragmenstein_placed,CpKRS_FrAncestor_bulkdock_iter2

>  <ref_pdb>  (309) 
x0540b

>  <energy_score>  (309) 
-61.597522

>  <distance_score>  (309) 
0.372479

>  <HIPPO Pose ID>  (309) 
54256

>  <ref_mols>  (309) 
x0504b

>  <smiles>  (309) 
C#Cc1scnc1C(=O)NCCF

>  <HIPPO Compound ID>  (309) 
449141

>  <alias>  (309) 
ZDBMHEXXPAPNAL-UHFFFAOYSA-N-P49

>  <subsites>  (309) 


>  <placement_batch>  (309) 
CpKRS_FrAncestor_bulkdock_iter2

>  <name>  (309) 
ZDBMHEXXPAPNAL-UHFFFAOYSA-N-P49

$$$$
ZBUWPQQWWVXXHD-SECBINFHSA-N-P49
     RDKit          3D

 18 18  0  0  0  0  0  0  0  0999 V2000
    5.1637  -16.6220   26.0786 C   0  0  0  0  0  0  0  0  0  0  0  0
    4.2732  -15.8653   26.3444 C   0  0  0  0  0  0  0  0  0  0  0  0
    3.2028  -14.9641   26.5903 C   0  0  0  0  0  0  0  0  0  0  0  0
    1.8646  -15.3591   27.5811 S   0  0  0  0  0  0  0  0  0  0  0  0
    1.1642  -13.8469   27.2139 C   0  0  0  0  0  0  0  0  0  0  0  0
    1.8411  -13.0603   26.4108 N   0  0  0  0  0  0  0  0  0  0  0  0
    3.0629  -13.6824   26.0836 C   0  0  0  0  0  0  0  0  0  0  0  0
    4.0622  -12.9737   25.2514 C   0  0  0  0  0  0  0  0  0  0  0  0
    5.0730  -13.4663   24.9466 O   0  0  0  0  0  0  0  0  0  0  0  0
    3.4632  -11.6071   24.8706 N   0  0  0  0  0  0  0  0  0  0  0  0
    3.9456  -10.5837   23.9453 C   0  0  2  0  0  0  0  0  0  0  0  0
    4.4518  -11.2824   22.6715 C   0  0  0  0  0  0  0  0  0  0  0  0
    3.3628  -12.2352   22.1907 C   0  0  0  0  0  0  0  0  0  0  0  0
    4.8847  -10.3020   21.5825 C   0  0  0  0  0  0  0  0  0  0  0  0
    4.9868   -9.5997   24.4837 C   0  0  0  0  0  0  0  0  0  0  0  0
    4.5939   -9.0750   25.6630 F   0  0  0  0  0  0  0  0  0  0  0  0
    5.1387   -8.5519   23.6345 F   0  0  0  0  0  0  0  0  0  0  0  0
    6.1990  -10.1569   24.6625 F   0  0  0  0  0  0  0  0  0  0  0  0
  1  2  3  0
  2  3  1  0
  3  4  1  0
  4  5  1  0
  5  6  2  0
  6  7  1  0
  7  8  1  0
  8  9  2  0
  8 10  1  0
 11 10  1  1
 11 12  1  0
 12 13  1  0
 12 14  1  0
 11 15  1  0
 15 16  1  0
 15 17  1  0
 15 18  1  0
  7  3  2  0
M  END
>  <inchikey>  (310) 
ZBUWPQQWWVXXHD-UHFFFAOYSA-N

>  <tags>  (310) 
fragmenstein_placed,CpKRS_FrAncestor_bulkdock_iter2

>  <ref_pdb>  (310) 
x0540b

>  <energy_score>  (310) 
-70.849131

>  <distance_score>  (310) 
0.664349

>  <HIPPO Pose ID>  (310) 
54259

>  <ref_mols>  (310) 
x0504b

>  <smiles>  (310) 
C#Cc1scnc1C(=O)N[C@H](C(C)C)C(F)(F)F

>  <HIPPO Compound ID>  (310) 
449133

>  <alias>  (310) 
ZBUWPQQWWVXXHD-SECBINFHSA-N-P49

>  <subsites>  (310) 


>  <placement_batch>  (310) 
CpKRS_FrAncestor_bulkdock_iter2

>  <name>  (310) 
ZBUWPQQWWVXXHD-SECBINFHSA-N-P49

$$$$
UWZJTXCGKOEMCO-SSDOTTSWSA-N-P49
     RDKit          3D

 17 17  0  0  0  0  0  0  0  0999 V2000
    5.1321  -16.4421   26.1167 C   0  0  0  0  0  0  0  0  0  0  0  0
    4.2182  -15.6921   26.3144 C   0  0  0  0  0  0  0  0  0  0  0  0
    3.1174  -14.8024   26.4574 C   0  0  0  0  0  0  0  0  0  0  0  0
    1.7659  -15.1492   27.4494 S   0  0  0  0  0  0  0  0  0  0  0  0
    1.0296  -13.7005   26.9248 C   0  0  0  0  0  0  0  0  0  0  0  0
    1.7011  -12.9721   26.0632 N   0  0  0  0  0  0  0  0  0  0  0  0
    2.9496  -13.5761   25.8301 C   0  0  0  0  0  0  0  0  0  0  0  0
    3.9607  -12.9054   24.9829 C   0  0  0  0  0  0  0  0  0  0  0  0
    5.0427  -13.3278   24.8813 O   0  0  0  0  0  0  0  0  0  0  0  0
    3.3000  -11.6802   24.3197 N   0  0  0  0  0  0  0  0  0  0  0  0
    3.8689  -10.6449   23.4509 C   0  0  2  0  0  0  0  0  0  0  0  0
    5.2534  -11.0224   22.9249 C   0  0  0  0  0  0  0  0  0  0  0  0
    5.2096  -12.1905   21.9711 C   0  0  0  0  0  0  0  0  0  0  0  0
    4.0053   -9.2767   24.1229 C   0  0  0  0  0  0  0  0  0  0  0  0
    2.7898   -8.7603   24.4185 F   0  0  0  0  0  0  0  0  0  0  0  0
    4.5927   -8.3901   23.2777 F   0  0  0  0  0  0  0  0  0  0  0  0
    4.7443   -9.3164   25.2480 F   0  0  0  0  0  0  0  0  0  0  0  0
  1  2  3  0
  2  3  1  0
  3  4  1  0
  4  5  1  0
  5  6  2  0
  6  7  1  0
  7  8  1  0
  8  9  2  0
  8 10  1  0
 10 11  1  0
 11 12  1  1
 12 13  1  0
 11 14  1  0
 14 15  1  0
 14 16  1  0
 14 17  1  0
  7  3  2  0
M  END
>  <inchikey>  (311) 
UWZJTXCGKOEMCO-UHFFFAOYSA-N

>  <tags>  (311) 
fragmenstein_placed,CpKRS_FrAncestor_bulkdock_iter2

>  <ref_pdb>  (311) 
x0540b

>  <energy_score>  (311) 
-66.111026

>  <distance_score>  (311) 
0.565811

>  <HIPPO Pose ID>  (311) 
54271

>  <ref_mols>  (311) 
x0504b

>  <smiles>  (311) 
C#Cc1scnc1C(=O)N[C@H](CC)C(F)(F)F

>  <HIPPO Compound ID>  (311) 
150853

>  <alias>  (311) 
UWZJTXCGKOEMCO-SSDOTTSWSA-N-P49

>  <subsites>  (311) 


>  <placement_batch>  (311) 
CpKRS_FrAncestor_bulkdock_iter2

>  <name>  (311) 
UWZJTXCGKOEMCO-SSDOTTSWSA-N-P49

$$$$
DINJVWSQYICYDN-RXMQYKEDSA-N-P49
     RDKit          3D

 16 16  0  0  0  0  0  0  0  0999 V2000
    5.2518  -16.4261   26.0801 C   0  0  0  0  0  0  0  0  0  0  0  0
    4.3352  -15.6784   26.2726 C   0  0  0  0  0  0  0  0  0  0  0  0
    3.2237  -14.8053   26.4217 C   0  0  0  0  0  0  0  0  0  0  0  0
    1.9157  -15.1461   27.4745 S   0  0  0  0  0  0  0  0  0  0  0  0
    1.1340  -13.7270   26.9366 C   0  0  0  0  0  0  0  0  0  0  0  0
    1.7568  -13.0167   26.0247 N   0  0  0  0  0  0  0  0  0  0  0  0
    3.0049  -13.6109   25.7519 C   0  0  0  0  0  0  0  0  0  0  0  0
    3.9529  -12.9571   24.8193 C   0  0  0  0  0  0  0  0  0  0  0  0
    5.0572  -13.3112   24.7143 O   0  0  0  0  0  0  0  0  0  0  0  0
    3.1998  -11.8200   24.1111 N   0  0  0  0  0  0  0  0  0  0  0  0
    3.6766  -10.8031   23.1808 C   0  0  2  0  0  0  0  0  0  0  0  0
    4.6348  -11.4183   22.1679 C   0  0  0  0  0  0  0  0  0  0  0  0
    4.3278   -9.5886   23.8567 C   0  0  0  0  0  0  0  0  0  0  0  0
    5.2828   -9.9147   24.7466 F   0  0  0  0  0  0  0  0  0  0  0  0
    4.8855   -8.7596   22.9401 F   0  0  0  0  0  0  0  0  0  0  0  0
    3.3905   -8.8549   24.5060 F   0  0  0  0  0  0  0  0  0  0  0  0
  1  2  3  0
  2  3  1  0
  3  4  1  0
  4  5  1  0
  5  6  2  0
  6  7  1  0
  7  8  1  0
  8  9  2  0
  8 10  1  0
 10 11  1  0
 11 12  1  6
 11 13  1  0
 13 14  1  0
 13 15  1  0
 13 16  1  0
  7  3  2  0
M  END
>  <inchikey>  (312) 
DINJVWSQYICYDN-UHFFFAOYSA-N

>  <tags>  (312) 
fragmenstein_placed,CpKRS_FrAncestor_bulkdock_iter2

>  <ref_pdb>  (312) 
x0540b

>  <energy_score>  (312) 
-28.252346

>  <distance_score>  (312) 
0.444631

>  <HIPPO Pose ID>  (312) 
54283

>  <ref_mols>  (312) 
x0504b

>  <smiles>  (312) 
C#Cc1scnc1C(=O)N[C@H](C)C(F)(F)F

>  <HIPPO Compound ID>  (312) 
129447

>  <alias>  (312) 
DINJVWSQYICYDN-RXMQYKEDSA-N-P49

>  <subsites>  (312) 


>  <placement_batch>  (312) 
CpKRS_FrAncestor_bulkdock_iter2

>  <name>  (312) 
DINJVWSQYICYDN-RXMQYKEDSA-N-P49

$$$$
UPPRDFJZIZDLMT-RXMQYKEDSA-N-P49
     RDKit          3D

 15 15  0  0  0  0  0  0  0  0999 V2000
    5.2773  -16.4676   26.0663 C   0  0  0  0  0  0  0  0  0  0  0  0
    4.3545  -15.7321   26.2746 C   0  0  0  0  0  0  0  0  0  0  0  0
    3.2363  -14.8735   26.4487 C   0  0  0  0  0  0  0  0  0  0  0  0
    1.9505  -15.2358   27.5211 S   0  0  0  0  0  0  0  0  0  0  0  0
    1.1492  -13.8162   27.0154 C   0  0  0  0  0  0  0  0  0  0  0  0
    1.7493  -13.0901   26.1011 N   0  0  0  0  0  0  0  0  0  0  0  0
    2.9961  -13.6751   25.7956 C   0  0  0  0  0  0  0  0  0  0  0  0
    3.9229  -12.9988   24.8587 C   0  0  0  0  0  0  0  0  0  0  0  0
    5.0301  -13.3350   24.7276 O   0  0  0  0  0  0  0  0  0  0  0  0
    3.1495  -11.8414   24.2071 N   0  0  0  0  0  0  0  0  0  0  0  0
    3.6026  -10.7856   23.3208 C   0  0  2  0  0  0  0  0  0  0  0  0
    4.5284  -11.3284   22.2377 C   0  0  0  0  0  0  0  0  0  0  0  0
    4.2613   -9.6210   24.0677 C   0  0  0  0  0  0  0  0  0  0  0  0
    4.5703   -8.6291   23.1887 F   0  0  0  0  0  0  0  0  0  0  0  0
    5.4177   -9.9852   24.6638 F   0  0  0  0  0  0  0  0  0  0  0  0
  1  2  3  0
  2  3  1  0
  3  4  1  0
  4  5  1  0
  5  6  2  0
  6  7  1  0
  7  8  1  0
  8  9  2  0
  8 10  1  0
 10 11  1  0
 11 12  1  6
 11 13  1  0
 13 14  1  0
 13 15  1  0
  7  3  2  0
M  END
>  <inchikey>  (313) 
UPPRDFJZIZDLMT-UHFFFAOYSA-N

>  <tags>  (313) 
fragmenstein_placed,CpKRS_FrAncestor_bulkdock_iter2

>  <ref_pdb>  (313) 
x0540b

>  <energy_score>  (313) 
-57.063579

>  <distance_score>  (313) 
0.498132

>  <HIPPO Pose ID>  (313) 
54292

>  <ref_mols>  (313) 
x0504b

>  <smiles>  (313) 
C#Cc1scnc1C(=O)N[C@H](C)C(F)F

>  <HIPPO Compound ID>  (313) 
308449

>  <alias>  (313) 
UPPRDFJZIZDLMT-RXMQYKEDSA-N-P49

>  <subsites>  (313) 


>  <placement_batch>  (313) 
CpKRS_FrAncestor_bulkdock_iter2

>  <name>  (313) 
UPPRDFJZIZDLMT-RXMQYKEDSA-N-P49

$$$$
OUKGBITUQKVPFZ-ZCFIWIBFSA-N-P49
     RDKit          3D

 14 14  0  0  0  0  0  0  0  0999 V2000
    5.2194  -16.5910   26.0619 C   0  0  0  0  0  0  0  0  0  0  0  0
    4.3253  -15.8194   26.2649 C   0  0  0  0  0  0  0  0  0  0  0  0
    3.2458  -14.9105   26.4275 C   0  0  0  0  0  0  0  0  0  0  0  0
    1.9206  -15.2232   27.4670 S   0  0  0  0  0  0  0  0  0  0  0  0
    1.2007  -13.7597   26.9636 C   0  0  0  0  0  0  0  0  0  0  0  0
    1.8590  -13.0520   26.0756 N   0  0  0  0  0  0  0  0  0  0  0  0
    3.0825  -13.6910   25.7894 C   0  0  0  0  0  0  0  0  0  0  0  0
    4.0683  -13.0524   24.8839 C   0  0  0  0  0  0  0  0  0  0  0  0
    5.1294  -13.5003   24.7113 O   0  0  0  0  0  0  0  0  0  0  0  0
    3.4288  -11.7679   24.3358 N   0  0  0  0  0  0  0  0  0  0  0  0
    3.9266  -10.8048   23.3792 C   0  0  2  0  0  0  0  0  0  0  0  0
    4.3812  -11.5077   22.1086 C   0  0  0  0  0  0  0  0  0  0  0  0
    5.0754   -9.9786   23.9518 C   0  0  0  0  0  0  0  0  0  0  0  0
    4.6231   -9.2416   25.0029 F   0  0  0  0  0  0  0  0  0  0  0  0
  1  2  3  0
  2  3  1  0
  3  4  1  0
  4  5  1  0
  5  6  2  0
  6  7  1  0
  7  8  1  0
  8  9  2  0
  8 10  1  0
 10 11  1  0
 11 12  1  6
 11 13  1  0
 13 14  1  0
  7  3  2  0
M  END
>  <inchikey>  (314) 
OUKGBITUQKVPFZ-UHFFFAOYSA-N

>  <tags>  (314) 
fragmenstein_placed,CpKRS_FrAncestor_bulkdock_iter2

>  <ref_pdb>  (314) 
x0540b

>  <energy_score>  (314) 
-51.186695

>  <distance_score>  (314) 
0.366522

>  <HIPPO Pose ID>  (314) 
54298

>  <ref_mols>  (314) 
x0504b

>  <smiles>  (314) 
C#Cc1scnc1C(=O)N[C@H](C)CF

>  <HIPPO Compound ID>  (314) 
449135

>  <alias>  (314) 
OUKGBITUQKVPFZ-ZCFIWIBFSA-N-P49

>  <subsites>  (314) 


>  <placement_batch>  (314) 
CpKRS_FrAncestor_bulkdock_iter2

>  <name>  (314) 
OUKGBITUQKVPFZ-ZCFIWIBFSA-N-P49

$$$$
STEQHGQVYYSLKP-ZCFIWIBFSA-N-P48
     RDKit          3D

 17 17  0  0  0  0  0  0  0  0999 V2000
    5.4037  -16.5461   25.9003 C   0  0  0  0  0  0  0  0  0  0  0  0
    4.5243  -15.8262   26.2839 C   0  0  0  0  0  0  0  0  0  0  0  0
    3.4421  -14.9495   26.5701 C   0  0  0  0  0  0  0  0  0  0  0  0
    2.2051  -15.2929   27.6947 S   0  0  0  0  0  0  0  0  0  0  0  0
    1.3414  -13.9199   27.1457 C   0  0  0  0  0  0  0  0  0  0  0  0
    1.9251  -13.1997   26.2114 N   0  0  0  0  0  0  0  0  0  0  0  0
    3.1891  -13.7450   25.9364 C   0  0  0  0  0  0  0  0  0  0  0  0
    4.0974  -13.0935   24.9718 C   0  0  0  0  0  0  0  0  0  0  0  0
    5.2246  -13.3708   24.9030 O   0  0  0  0  0  0  0  0  0  0  0  0
    3.2608  -12.1239   24.1326 N   0  0  0  0  0  0  0  0  0  0  0  0
    3.6133  -11.3470   22.9515 C   0  0  2  0  0  0  0  0  0  0  0  0
    4.6601  -12.0795   22.1271 C   0  0  0  0  0  0  0  0  0  0  0  0
    4.7561  -11.5018   20.9028 F   0  0  0  0  0  0  0  0  0  0  0  0
    4.1275   -9.9363   23.2227 C   0  0  0  0  0  0  0  0  0  0  0  0
    5.1428   -9.9007   24.1070 F   0  0  0  0  0  0  0  0  0  0  0  0
    4.5454   -9.3143   22.0964 F   0  0  0  0  0  0  0  0  0  0  0  0
    3.1280   -9.1582   23.7260 F   0  0  0  0  0  0  0  0  0  0  0  0
  1  2  3  0
  2  3  1  0
  3  4  1  0
  4  5  1  0
  5  6  2  0
  6  7  1  0
  7  8  1  0
  8  9  2  0
  8 10  1  0
 10 11  1  0
 11 12  1  1
 12 13  1  0
 11 14  1  0
 14 15  1  0
 14 16  1  0
 14 17  1  0
  7  3  2  0
M  END
>  <inchikey>  (315) 
STEQHGQVYYSLKP-UHFFFAOYSA-N

>  <tags>  (315) 
fragmenstein_placed,CpKRS_FrAncestor_bulkdock_iter2

>  <ref_pdb>  (315) 
x0540b

>  <energy_score>  (315) 
-28.389573

>  <distance_score>  (315) 
0.498037

>  <HIPPO Pose ID>  (315) 
54300

>  <ref_mols>  (315) 
x0504a

>  <smiles>  (315) 
C#Cc1scnc1C(=O)N[C@H](CF)C(F)(F)F

>  <HIPPO Compound ID>  (315) 
449142

>  <alias>  (315) 
STEQHGQVYYSLKP-ZCFIWIBFSA-N-P48

>  <subsites>  (315) 


>  <placement_batch>  (315) 
CpKRS_FrAncestor_bulkdock_iter2

>  <name>  (315) 
STEQHGQVYYSLKP-ZCFIWIBFSA-N-P48

$$$$
DCICZXLKQYVJBG-UHFFFAOYSA-N-P40
     RDKit          3D

 16 16  0  0  0  0  0  0  0  0999 V2000
    1.7597  -16.9863   25.8568 C   0  0  0  0  0  0  0  0  0  0  0  0
    2.0104  -15.5456   25.5164 C   0  0  0  0  0  0  0  0  0  0  0  0
    1.0039  -14.7918   25.0439 C   0  0  0  0  0  0  0  0  0  0  0  0
    1.0047  -13.0483   24.4212 Br  0  0  0  0  0  0  0  0  0  0  0  0
    3.4624  -15.1500   25.6490 C   0  0  0  0  0  0  0  0  0  0  0  0
    4.3085  -15.9017   25.3790 O   0  0  0  0  0  0  0  0  0  0  0  0
    3.5410  -13.7043   26.1572 N   0  0  0  0  0  0  0  0  0  0  0  0
    4.6724  -12.8453   26.3510 C   0  0  0  0  0  0  0  0  0  0  0  0
    4.8293  -11.9121   25.1838 C   0  0  0  0  0  0  0  0  0  0  0  0
    5.1867  -10.5745   25.3702 C   0  0  0  0  0  0  0  0  0  0  0  0
    5.3280   -9.7466   24.2589 C   0  0  0  0  0  0  0  0  0  0  0  0
    5.7813   -8.3309   24.4078 C   0  0  0  0  0  0  0  0  0  0  0  0
    5.1107  -10.1722   23.0010 N   0  0  0  0  0  0  0  0  0  0  0  0
    4.8353  -11.4793   22.8302 C   0  0  0  0  0  0  0  0  0  0  0  0
    4.7730  -11.9679   21.4335 C   0  0  0  0  0  0  0  0  0  0  0  0
    4.6864  -12.3744   23.8764 C   0  0  0  0  0  0  0  0  0  0  0  0
  1  2  1  0
  2  3  2  3
  3  4  1  0
  2  5  1  0
  5  6  2  0
  5  7  1  0
  7  8  1  0
  8  9  1  0
  9 10  2  0
 10 11  1  0
 11 12  1  0
 11 13  2  0
 13 14  1  0
 14 15  1  0
 14 16  2  0
 16  9  1  0
M  END
>  <inchikey>  (316) 
DCICZXLKQYVJBG-UHFFFAOYSA-N

>  <tags>  (316) 
fragmenstein_placed,CpKRS_FrAncestor_bulkdock_iter2

>  <ref_pdb>  (316) 
x0540b

>  <energy_score>  (316) 
-22.331596

>  <distance_score>  (316) 
0.816425

>  <HIPPO Pose ID>  (316) 
54312

>  <ref_mols>  (316) 
x0602b

>  <smiles>  (316) 
CC(=CBr)C(=O)NCc1cc(C)nc(C)c1

>  <HIPPO Compound ID>  (316) 
122163

>  <alias>  (316) 
DCICZXLKQYVJBG-UHFFFAOYSA-N-P40

>  <subsites>  (316) 


>  <placement_batch>  (316) 
CpKRS_FrAncestor_bulkdock_iter2

>  <name>  (316) 
DCICZXLKQYVJBG-UHFFFAOYSA-N-P40

$$$$
WZEHFOBIRMOZSV-UHFFFAOYSA-N-P40
     RDKit          3D

 16 16  0  0  0  0  0  0  0  0999 V2000
    0.7559  -13.9245   24.0490 C   0  0  0  0  0  0  0  0  0  0  0  0
    1.1295  -14.6076   25.3626 C   0  0  0  0  0  0  0  0  0  0  0  0
    0.2990  -15.8573   25.5700 C   0  0  0  0  0  0  0  0  0  0  0  0
    0.6301  -13.3749   26.8061 Br  0  0  0  0  0  0  0  0  0  0  0  0
    2.6419  -14.9232   25.4745 C   0  0  0  0  0  0  0  0  0  0  0  0
    3.0632  -16.0083   25.4019 O   0  0  0  0  0  0  0  0  0  0  0  0
    3.3781  -13.5680   25.5823 N   0  0  0  0  0  0  0  0  0  0  0  0
    4.7723  -13.2630   25.5279 C   0  0  0  0  0  0  0  0  0  0  0  0
    4.9476  -12.2335   24.4522 C   0  0  0  0  0  0  0  0  0  0  0  0
    4.7084  -12.5666   23.1133 C   0  0  0  0  0  0  0  0  0  0  0  0
    4.7948  -11.5678   22.1624 C   0  0  0  0  0  0  0  0  0  0  0  0
    4.5627  -11.8675   20.8814 F   0  0  0  0  0  0  0  0  0  0  0  0
    5.0660  -10.2801   22.4368 N   0  0  0  0  0  0  0  0  0  0  0  0
    5.3197   -9.9930   23.7220 C   0  0  0  0  0  0  0  0  0  0  0  0
    5.5903   -8.7150   24.0140 F   0  0  0  0  0  0  0  0  0  0  0  0
    5.2654  -10.9102   24.7578 C   0  0  0  0  0  0  0  0  0  0  0  0
  1  2  1  0
  2  3  1  0
  2  4  1  0
  2  5  1  0
  5  6  2  0
  5  7  1  0
  7  8  1  0
  8  9  1  0
  9 10  2  0
 10 11  1  0
 11 12  1  0
 11 13  2  0
 13 14  1  0
 14 15  1  0
 14 16  2  0
 16  9  1  0
M  END
>  <inchikey>  (317) 
WZEHFOBIRMOZSV-UHFFFAOYSA-N

>  <tags>  (317) 
fragmenstein_placed,CpKRS_FrAncestor_bulkdock_iter2

>  <ref_pdb>  (317) 
x0540b

>  <energy_score>  (317) 
-8.395183

>  <distance_score>  (317) 
0.873552

>  <HIPPO Pose ID>  (317) 
54314

>  <ref_mols>  (317) 
x0602b

>  <smiles>  (317) 
CC(C)(Br)C(=O)NCc1cc(F)nc(F)c1

>  <HIPPO Compound ID>  (317) 
132880

>  <alias>  (317) 
WZEHFOBIRMOZSV-UHFFFAOYSA-N-P40

>  <subsites>  (317) 


>  <placement_batch>  (317) 
CpKRS_FrAncestor_bulkdock_iter2

>  <name>  (317) 
WZEHFOBIRMOZSV-UHFFFAOYSA-N-P40

$$$$
OPDJSFKYVWDQJL-UHFFFAOYSA-N-P40
     RDKit          3D

 14 14  0  0  0  0  0  0  0  0999 V2000
    1.6502  -17.0423   25.8895 C   0  0  0  0  0  0  0  0  0  0  0  0
    1.9829  -15.6055   25.6047 C   0  0  0  0  0  0  0  0  0  0  0  0
    0.9770  -14.7645   25.3078 C   0  0  0  0  0  0  0  0  0  0  0  0
    0.9945  -12.9852   24.7969 Br  0  0  0  0  0  0  0  0  0  0  0  0
    3.4742  -15.3370   25.5871 C   0  0  0  0  0  0  0  0  0  0  0  0
    4.2192  -16.1739   25.2763 O   0  0  0  0  0  0  0  0  0  0  0  0
    3.7257  -13.8762   25.9701 N   0  0  0  0  0  0  0  0  0  0  0  0
    4.9319  -13.1075   25.9616 C   0  0  0  0  0  0  0  0  0  0  0  0
    4.9245  -12.1900   24.7684 C   0  0  0  0  0  0  0  0  0  0  0  0
    4.6242  -12.6782   23.4892 C   0  0  0  0  0  0  0  0  0  0  0  0
    4.6148  -11.7979   22.4228 C   0  0  0  0  0  0  0  0  0  0  0  0
    4.8809  -10.4777   22.5392 N   0  0  0  0  0  0  0  0  0  0  0  0
    5.2186  -10.0375   23.7695 C   0  0  0  0  0  0  0  0  0  0  0  0
    5.2442  -10.8380   24.9012 C   0  0  0  0  0  0  0  0  0  0  0  0
  1  2  1  0
  2  3  2  3
  3  4  1  0
  2  5  1  0
  5  6  2  0
  5  7  1  0
  7  8  1  0
  8  9  1  0
  9 10  2  0
 10 11  1  0
 11 12  2  0
 12 13  1  0
 13 14  2  0
 14  9  1  0
M  END
>  <inchikey>  (318) 
OPDJSFKYVWDQJL-UHFFFAOYSA-N

>  <tags>  (318) 
fragmenstein_placed,CpKRS_FrAncestor_bulkdock_iter2

>  <ref_pdb>  (318) 
x0540b

>  <energy_score>  (318) 
-2.287793

>  <distance_score>  (318) 
0.443828

>  <HIPPO Pose ID>  (318) 
54316

>  <ref_mols>  (318) 
x0602b

>  <smiles>  (318) 
CC(=CBr)C(=O)NCc1ccncc1

>  <HIPPO Compound ID>  (318) 
449143

>  <alias>  (318) 
OPDJSFKYVWDQJL-UHFFFAOYSA-N-P40

>  <subsites>  (318) 


>  <placement_batch>  (318) 
CpKRS_FrAncestor_bulkdock_iter2

>  <name>  (318) 
OPDJSFKYVWDQJL-UHFFFAOYSA-N-P40

$$$$
CPXOLINJMFWECQ-UHFFFAOYSA-N-P40
     RDKit          3D

 14 14  0  0  0  0  0  0  0  0999 V2000
    0.9051  -16.2473   25.6707 C   0  0  0  0  0  0  0  0  0  0  0  0
    1.3943  -14.8090   25.6060 C   0  0  0  0  0  0  0  0  0  0  0  0
    1.0507  -14.1577   24.2659 C   0  0  0  0  0  0  0  0  0  0  0  0
    0.4157  -13.7876   26.9633 Br  0  0  0  0  0  0  0  0  0  0  0  0
    2.9202  -14.7545   25.8551 C   0  0  0  0  0  0  0  0  0  0  0  0
    3.5876  -15.7108   25.8287 O   0  0  0  0  0  0  0  0  0  0  0  0
    3.3075  -13.2676   26.0167 N   0  0  0  0  0  0  0  0  0  0  0  0
    4.5930  -12.6449   26.0835 C   0  0  0  0  0  0  0  0  0  0  0  0
    4.8130  -11.9076   24.7915 C   0  0  0  0  0  0  0  0  0  0  0  0
    5.2176  -10.5733   24.7887 C   0  0  0  0  0  0  0  0  0  0  0  0
    5.3475   -9.9265   23.5702 C   0  0  0  0  0  0  0  0  0  0  0  0
    5.0864  -10.5022   22.3778 N   0  0  0  0  0  0  0  0  0  0  0  0
    4.7481  -11.8095   22.3957 C   0  0  0  0  0  0  0  0  0  0  0  0
    4.6060  -12.5444   23.5581 C   0  0  0  0  0  0  0  0  0  0  0  0
  1  2  1  0
  2  3  1  0
  2  4  1  0
  2  5  1  0
  5  6  2  0
  5  7  1  0
  7  8  1  0
  8  9  1  0
  9 10  2  0
 10 11  1  0
 11 12  2  0
 12 13  1  0
 13 14  2  0
 14  9  1  0
M  END
>  <inchikey>  (319) 
CPXOLINJMFWECQ-UHFFFAOYSA-N

>  <tags>  (319) 
fragmenstein_placed,CpKRS_FrAncestor_bulkdock_iter2

>  <ref_pdb>  (319) 
x0540b

>  <energy_score>  (319) 
-3.828432

>  <distance_score>  (319) 
0.69301

>  <HIPPO Pose ID>  (319) 
54318

>  <ref_mols>  (319) 
x0602b

>  <smiles>  (319) 
CC(C)(Br)C(=O)NCc1ccncc1

>  <HIPPO Compound ID>  (319) 
449144

>  <alias>  (319) 
CPXOLINJMFWECQ-UHFFFAOYSA-N-P40

>  <subsites>  (319) 


>  <placement_batch>  (319) 
CpKRS_FrAncestor_bulkdock_iter2

>  <name>  (319) 
CPXOLINJMFWECQ-UHFFFAOYSA-N-P40

$$$$
XQNXSVKCCPDHNP-UHFFFAOYSA-N-P40
     RDKit          3D

 15 15  0  0  0  0  0  0  0  0999 V2000
    2.0066  -17.0252   26.1117 C   0  0  0  0  0  0  0  0  0  0  0  0
    2.2141  -15.5638   25.8568 C   0  0  0  0  0  0  0  0  0  0  0  0
    1.1484  -14.7467   25.8469 C   0  0  0  0  0  0  0  0  0  0  0  0
    1.0262  -12.9324   25.5013 Br  0  0  0  0  0  0  0  0  0  0  0  0
    3.6640  -15.2360   25.5966 C   0  0  0  0  0  0  0  0  0  0  0  0
    4.3605  -16.0186   25.0934 O   0  0  0  0  0  0  0  0  0  0  0  0
    3.9529  -13.8114   26.0711 N   0  0  0  0  0  0  0  0  0  0  0  0
    5.1291  -13.0117   25.9443 C   0  0  0  0  0  0  0  0  0  0  0  0
    5.0042  -12.1356   24.7285 C   0  0  0  0  0  0  0  0  0  0  0  0
    4.6188  -12.6696   23.4927 C   0  0  0  0  0  0  0  0  0  0  0  0
    4.5399  -11.8305   22.3996 C   0  0  0  0  0  0  0  0  0  0  0  0
    4.8162  -10.5096   22.4493 N   0  0  0  0  0  0  0  0  0  0  0  0
    5.2392  -10.0104   23.6324 C   0  0  0  0  0  0  0  0  0  0  0  0
    5.6397   -8.5685   23.6597 C   0  0  0  0  0  0  0  0  0  0  0  0
    5.3280  -10.7791   24.7896 C   0  0  0  0  0  0  0  0  0  0  0  0
  1  2  1  0
  2  3  2  3
  3  4  1  0
  2  5  1  0
  5  6  2  0
  5  7  1  0
  7  8  1  0
  8  9  1  0
  9 10  2  0
 10 11  1  0
 11 12  2  0
 12 13  1  0
 13 14  1  0
 13 15  2  0
 15  9  1  0
M  END
>  <inchikey>  (320) 
XQNXSVKCCPDHNP-UHFFFAOYSA-N

>  <tags>  (320) 
fragmenstein_placed,CpKRS_FrAncestor_bulkdock_iter2

>  <ref_pdb>  (320) 
x0540b

>  <energy_score>  (320) 
-21.100261

>  <distance_score>  (320) 
0.566526

>  <HIPPO Pose ID>  (320) 
54320

>  <ref_mols>  (320) 
x0602b

>  <smiles>  (320) 
CC(=CBr)C(=O)NCc1ccnc(C)c1

>  <HIPPO Compound ID>  (320) 
303341

>  <alias>  (320) 
XQNXSVKCCPDHNP-UHFFFAOYSA-N-P40

>  <subsites>  (320) 


>  <placement_batch>  (320) 
CpKRS_FrAncestor_bulkdock_iter2

>  <name>  (320) 
XQNXSVKCCPDHNP-UHFFFAOYSA-N-P40

$$$$
DVFCTFFZJKTUHN-UHFFFAOYSA-N-P39
     RDKit          3D

 15 15  0  0  0  0  0  0  0  0999 V2000
    2.0727  -17.8202   24.7809 C   0  0  0  0  0  0  0  0  0  0  0  0
    2.1858  -16.3715   25.1747 C   0  0  0  0  0  0  0  0  0  0  0  0
    1.1324  -15.7577   25.7354 C   0  0  0  0  0  0  0  0  0  0  0  0
    0.8528  -13.9823   26.1804 Br  0  0  0  0  0  0  0  0  0  0  0  0
    3.5037  -15.7720   24.7563 C   0  0  0  0  0  0  0  0  0  0  0  0
    4.0853  -16.2230   23.8544 O   0  0  0  0  0  0  0  0  0  0  0  0
    3.8218  -14.5572   25.6376 N   0  0  0  0  0  0  0  0  0  0  0  0
    4.9644  -13.6984   25.6584 C   0  0  0  0  0  0  0  0  0  0  0  0
    4.8442  -12.6388   24.5944 C   0  0  0  0  0  0  0  0  0  0  0  0
    4.6788  -12.9967   23.2490 C   0  0  0  0  0  0  0  0  0  0  0  0
    4.6278  -12.0066   22.2855 C   0  0  0  0  0  0  0  0  0  0  0  0
    4.7279  -10.6921   22.5592 N   0  0  0  0  0  0  0  0  0  0  0  0
    4.9116  -10.3738   23.8530 C   0  0  0  0  0  0  0  0  0  0  0  0
    5.1125   -8.6952   24.1187 Cl  0  0  0  0  0  0  0  0  0  0  0  0
    4.9611  -11.2814   24.8997 C   0  0  0  0  0  0  0  0  0  0  0  0
  1  2  1  0
  2  3  2  3
  3  4  1  0
  2  5  1  0
  5  6  2  0
  5  7  1  0
  7  8  1  0
  8  9  1  0
  9 10  2  0
 10 11  1  0
 11 12  2  0
 12 13  1  0
 13 14  1  0
 13 15  2  0
 15  9  1  0
M  END
>  <inchikey>  (321) 
DVFCTFFZJKTUHN-UHFFFAOYSA-N

>  <tags>  (321) 
fragmenstein_placed,CpKRS_FrAncestor_bulkdock_iter2

>  <ref_pdb>  (321) 
x0540b

>  <energy_score>  (321) 
-1.66374

>  <distance_score>  (321) 
0.856096

>  <HIPPO Pose ID>  (321) 
54321

>  <ref_mols>  (321) 
x0602a

>  <smiles>  (321) 
CC(=CBr)C(=O)NCc1ccnc(Cl)c1

>  <HIPPO Compound ID>  (321) 
304879

>  <alias>  (321) 
DVFCTFFZJKTUHN-UHFFFAOYSA-N-P39

>  <subsites>  (321) 


>  <placement_batch>  (321) 
CpKRS_FrAncestor_bulkdock_iter2

>  <name>  (321) 
DVFCTFFZJKTUHN-UHFFFAOYSA-N-P39

$$$$
YZOMMRYEAKVOQI-UHFFFAOYSA-N-P40
     RDKit          3D

 16 16  0  0  0  0  0  0  0  0999 V2000
    0.3980  -14.4017   26.8024 C   0  0  0  0  0  0  0  0  0  0  0  0
    1.2922  -15.0209   25.7302 C   0  0  0  0  0  0  0  0  0  0  0  0
    0.9636  -16.5016   25.5796 C   0  0  0  0  0  0  0  0  0  0  0  0
    0.8307  -14.1099   24.0332 Br  0  0  0  0  0  0  0  0  0  0  0  0
    2.8261  -14.8472   25.9234 C   0  0  0  0  0  0  0  0  0  0  0  0
    3.5465  -15.7642   25.9625 O   0  0  0  0  0  0  0  0  0  0  0  0
    3.1245  -13.3336   26.0280 N   0  0  0  0  0  0  0  0  0  0  0  0
    4.3737  -12.6342   26.1065 C   0  0  0  0  0  0  0  0  0  0  0  0
    4.6566  -11.9741   24.7927 C   0  0  0  0  0  0  0  0  0  0  0  0
    4.5517  -12.6730   23.5812 C   0  0  0  0  0  0  0  0  0  0  0  0
    4.7596  -11.9899   22.3931 C   0  0  0  0  0  0  0  0  0  0  0  0
    5.0737  -10.6782   22.3266 N   0  0  0  0  0  0  0  0  0  0  0  0
    5.2246  -10.0389   23.5062 C   0  0  0  0  0  0  0  0  0  0  0  0
    5.5253   -8.7332   23.4602 F   0  0  0  0  0  0  0  0  0  0  0  0
    5.0240  -10.6339   24.7415 C   0  0  0  0  0  0  0  0  0  0  0  0
    5.1302   -9.9142   25.8684 F   0  0  0  0  0  0  0  0  0  0  0  0
  1  2  1  0
  2  3  1  0
  2  4  1  0
  2  5  1  0
  5  6  2  0
  5  7  1  0
  7  8  1  0
  8  9  1  0
  9 10  2  0
 10 11  1  0
 11 12  2  0
 12 13  1  0
 13 14  1  0
 13 15  2  0
 15 16  1  0
 15  9  1  0
M  END
>  <inchikey>  (322) 
YZOMMRYEAKVOQI-UHFFFAOYSA-N

>  <tags>  (322) 
fragmenstein_placed,CpKRS_FrAncestor_bulkdock_iter2

>  <ref_pdb>  (322) 
x0540b

>  <energy_score>  (322) 
-4.41047

>  <distance_score>  (322) 
0.635624

>  <HIPPO Pose ID>  (322) 
54326

>  <ref_mols>  (322) 
x0602b

>  <smiles>  (322) 
CC(C)(Br)C(=O)NCc1ccnc(F)c1F

>  <HIPPO Compound ID>  (322) 
131769

>  <alias>  (322) 
YZOMMRYEAKVOQI-UHFFFAOYSA-N-P40

>  <subsites>  (322) 


>  <placement_batch>  (322) 
CpKRS_FrAncestor_bulkdock_iter2

>  <name>  (322) 
YZOMMRYEAKVOQI-UHFFFAOYSA-N-P40

$$$$
ZHHLOWKYVXFHHA-UHFFFAOYSA-N-P40
     RDKit          3D

 15 15  0  0  0  0  0  0  0  0999 V2000
    0.9093  -16.2839   25.6476 C   0  0  0  0  0  0  0  0  0  0  0  0
    1.3784  -14.8371   25.6074 C   0  0  0  0  0  0  0  0  0  0  0  0
    1.0362  -14.1700   24.2752 C   0  0  0  0  0  0  0  0  0  0  0  0
    0.3795  -13.8574   26.9812 Br  0  0  0  0  0  0  0  0  0  0  0  0
    2.9004  -14.7704   25.8750 C   0  0  0  0  0  0  0  0  0  0  0  0
    3.5721  -15.7238   25.8650 O   0  0  0  0  0  0  0  0  0  0  0  0
    3.2793  -13.2809   26.0285 N   0  0  0  0  0  0  0  0  0  0  0  0
    4.5618  -12.6518   26.1056 C   0  0  0  0  0  0  0  0  0  0  0  0
    4.7978  -11.9504   24.7976 C   0  0  0  0  0  0  0  0  0  0  0  0
    4.6361  -12.6277   23.5793 C   0  0  0  0  0  0  0  0  0  0  0  0
    4.7674  -11.9204   22.3974 C   0  0  0  0  0  0  0  0  0  0  0  0
    5.0508  -10.6032   22.3451 N   0  0  0  0  0  0  0  0  0  0  0  0
    5.2635   -9.9890   23.5243 C   0  0  0  0  0  0  0  0  0  0  0  0
    5.5504   -8.6808   23.4929 F   0  0  0  0  0  0  0  0  0  0  0  0
    5.1465  -10.6024   24.7597 C   0  0  0  0  0  0  0  0  0  0  0  0
  1  2  1  0
  2  3  1  0
  2  4  1  0
  2  5  1  0
  5  6  2  0
  5  7  1  0
  7  8  1  0
  8  9  1  0
  9 10  2  0
 10 11  1  0
 11 12  2  0
 12 13  1  0
 13 14  1  0
 13 15  2  0
 15  9  1  0
M  END
>  <inchikey>  (323) 
ZHHLOWKYVXFHHA-UHFFFAOYSA-N

>  <tags>  (323) 
fragmenstein_placed,CpKRS_FrAncestor_bulkdock_iter2

>  <ref_pdb>  (323) 
x0540b

>  <energy_score>  (323) 
-2.034438

>  <distance_score>  (323) 
0.672097

>  <HIPPO Pose ID>  (323) 
54330

>  <ref_mols>  (323) 
x0602b

>  <smiles>  (323) 
CC(C)(Br)C(=O)NCc1ccnc(F)c1

>  <HIPPO Compound ID>  (323) 
308624

>  <alias>  (323) 
ZHHLOWKYVXFHHA-UHFFFAOYSA-N-P40

>  <subsites>  (323) 


>  <placement_batch>  (323) 
CpKRS_FrAncestor_bulkdock_iter2

>  <name>  (323) 
ZHHLOWKYVXFHHA-UHFFFAOYSA-N-P40

$$$$
SZZRAKKNQAWMPV-UHFFFAOYSA-N-P40
     RDKit          3D

 16 16  0  0  0  0  0  0  0  0999 V2000
    1.8883  -16.2045   25.6588 C   0  0  0  0  0  0  0  0  0  0  0  0
    3.2669  -16.7885   25.4903 C   0  0  0  0  0  0  0  0  0  0  0  0
    3.3714  -18.1160   25.3143 C   0  0  0  0  0  0  0  0  0  0  0  0
    4.8300  -19.2430   25.1795 Br  0  0  0  0  0  0  0  0  0  0  0  0
    4.4719  -15.9100   25.7296 C   0  0  0  0  0  0  0  0  0  0  0  0
    5.4485  -16.3565   26.1869 O   0  0  0  0  0  0  0  0  0  0  0  0
    4.1067  -14.4456   25.3762 N   0  0  0  0  0  0  0  0  0  0  0  0
    4.8395  -13.2061   25.6036 C   0  0  0  0  0  0  0  0  0  0  0  0
    4.0454  -12.4609   26.6927 C   0  0  0  0  0  0  0  0  0  0  0  0
    6.2685  -13.4974   26.0766 C   0  0  0  0  0  0  0  0  0  0  0  0
    4.8699  -12.2937   24.3850 C   0  0  0  0  0  0  0  0  0  0  0  0
    4.5231  -12.7456   23.1130 C   0  0  0  0  0  0  0  0  0  0  0  0
    4.5751  -11.8521   22.0586 C   0  0  0  0  0  0  0  0  0  0  0  0
    4.9223  -10.5510   22.1720 N   0  0  0  0  0  0  0  0  0  0  0  0
    5.2993  -10.1368   23.3915 C   0  0  0  0  0  0  0  0  0  0  0  0
    5.2836  -10.9527   24.5081 C   0  0  0  0  0  0  0  0  0  0  0  0
  1  2  1  0
  2  3  2  3
  3  4  1  0
  2  5  1  0
  5  6  2  0
  5  7  1  0
  7  8  1  0
  8  9  1  0
  8 10  1  0
  8 11  1  0
 11 12  2  0
 12 13  1  0
 13 14  2  0
 14 15  1  0
 15 16  2  0
 16 11  1  0
M  END
>  <inchikey>  (324) 
SZZRAKKNQAWMPV-UHFFFAOYSA-N

>  <tags>  (324) 
fragmenstein_placed,CpKRS_FrAncestor_bulkdock_iter2

>  <ref_pdb>  (324) 
x0540b

>  <energy_score>  (324) 
-8.049263

>  <distance_score>  (324) 
0.922284

>  <HIPPO Pose ID>  (324) 
54332

>  <ref_mols>  (324) 
x0602b

>  <smiles>  (324) 
CC(=CBr)C(=O)NC(C)(C)c1ccncc1

>  <HIPPO Compound ID>  (324) 
122980

>  <alias>  (324) 
SZZRAKKNQAWMPV-UHFFFAOYSA-N-P40

>  <subsites>  (324) 


>  <placement_batch>  (324) 
CpKRS_FrAncestor_bulkdock_iter2

>  <name>  (324) 
SZZRAKKNQAWMPV-UHFFFAOYSA-N-P40

$$$$
KFMIGBDGTCPMOB-JTQLQIEISA-N-P40
     RDKit          3D

 16 16  0  0  0  0  0  0  0  0999 V2000
    1.6499  -17.1016   25.9171 C   0  0  0  0  0  0  0  0  0  0  0  0
    2.0678  -15.7501   25.4481 C   0  0  0  0  0  0  0  0  0  0  0  0
    1.2697  -14.8588   24.8364 C   0  0  0  0  0  0  0  0  0  0  0  0
   -0.5688  -14.9922   24.6075 Br  0  0  0  0  0  0  0  0  0  0  0  0
    3.5507  -15.4968   25.4881 C   0  0  0  0  0  0  0  0  0  0  0  0
    4.3151  -16.3126   25.1640 O   0  0  0  0  0  0  0  0  0  0  0  0
    3.7719  -14.0313   25.9052 N   0  0  0  0  0  0  0  0  0  0  0  0
    4.9707  -13.2338   25.9199 C   0  0  1  0  0  0  0  0  0  0  0  0
    6.2549  -14.0582   25.9420 C   0  0  0  0  0  0  0  0  0  0  0  0
    4.9284  -12.3012   24.7262 C   0  0  0  0  0  0  0  0  0  0  0  0
    4.5865  -12.7763   23.4529 C   0  0  0  0  0  0  0  0  0  0  0  0
    4.5553  -11.8909   22.3940 C   0  0  0  0  0  0  0  0  0  0  0  0
    4.8348  -10.5757   22.5109 N   0  0  0  0  0  0  0  0  0  0  0  0
    5.2177  -10.1298   23.7284 C   0  0  0  0  0  0  0  0  0  0  0  0
    5.6251   -8.6922   23.8255 C   0  0  0  0  0  0  0  0  0  0  0  0
    5.2576  -10.9485   24.8559 C   0  0  0  0  0  0  0  0  0  0  0  0
  1  2  1  0
  2  3  2  3
  3  4  1  0
  2  5  1  0
  5  6  2  0
  5  7  1  0
  7  8  1  0
  8  9  1  6
  8 10  1  0
 10 11  2  0
 11 12  1  0
 12 13  2  0
 13 14  1  0
 14 15  1  0
 14 16  2  0
 16 10  1  0
M  END
>  <inchikey>  (325) 
KFMIGBDGTCPMOB-UHFFFAOYSA-N

>  <tags>  (325) 
fragmenstein_placed,CpKRS_FrAncestor_bulkdock_iter2

>  <ref_pdb>  (325) 
x0540b

>  <energy_score>  (325) 
-12.172905

>  <distance_score>  (325) 
0.78839

>  <HIPPO Pose ID>  (325) 
54334

>  <ref_mols>  (325) 
x0602b

>  <smiles>  (325) 
CC(=CBr)C(=O)N[C@@H](C)c1ccnc(C)c1

>  <HIPPO Compound ID>  (325) 
125874

>  <alias>  (325) 
KFMIGBDGTCPMOB-JTQLQIEISA-N-P40

>  <subsites>  (325) 


>  <placement_batch>  (325) 
CpKRS_FrAncestor_bulkdock_iter2

>  <name>  (325) 
KFMIGBDGTCPMOB-JTQLQIEISA-N-P40

$$$$
XBHQZIACAMNBRL-UHFFFAOYSA-N-P52
     RDKit          3D

 14 14  0  0  0  0  0  0  0  0999 V2000
   20.8462   10.1359   22.5599 C   0  0  0  0  0  0  0  0  0  0  0  0
   21.3346   10.3402   23.9835 C   0  0  0  0  0  0  0  0  0  0  0  0
   21.0205   11.7335   24.5226 C   0  0  0  0  0  0  0  0  0  0  0  0
   22.8105    9.9950   24.0713 C   0  0  0  0  0  0  0  0  0  0  0  0
   23.7474   10.7542   23.3347 C   0  0  0  0  0  0  0  0  0  0  0  0
   25.1086   10.4465   23.3466 C   0  0  0  0  0  0  0  0  0  0  0  0
   26.3177   11.4594   22.3065 Br  0  0  0  0  0  0  0  0  0  0  0  0
   25.5787    9.3818   24.1002 C   0  0  0  0  0  0  0  0  0  0  0  0
   24.6772    8.6113   24.8306 C   0  0  0  0  0  0  0  0  0  0  0  0
   23.3031    8.9097   24.8179 C   0  0  0  0  0  0  0  0  0  0  0  0
   22.2451    7.8430   25.7589 S   0  0  0  0  0  0  0  0  0  0  0  0
   21.5003    8.8928   26.8479 N   0  0  0  0  0  0  0  0  0  0  0  0
   21.1940    7.3266   24.9194 O   0  0  0  0  0  0  0  0  0  0  0  0
   23.0561    6.9907   26.5963 O   0  0  0  0  0  0  0  0  0  0  0  0
  1  2  1  0
  2  3  1  0
  2  4  1  0
  4  5  2  0
  5  6  1  0
  6  7  1  0
  6  8  2  0
  8  9  1  0
  9 10  2  0
 10 11  1  0
 11 12  1  0
 11 13  2  0
 11 14  2  0
 10  4  1  0
M  END
>  <inchikey>  (326) 
XBHQZIACAMNBRL-UHFFFAOYSA-N

>  <tags>  (326) 
fragmenstein_placed,CpKRS_FrAncestor_bulkdock_iter2

>  <ref_pdb>  (326) 
x0540b

>  <energy_score>  (326) 
-37.655551

>  <distance_score>  (326) 
0.493725

>  <HIPPO Pose ID>  (326) 
54349

>  <ref_mols>  (326) 
x0639a

>  <smiles>  (326) 
CC(C)c1cc(Br)ccc1S(N)(=O)=O

>  <HIPPO Compound ID>  (326) 
449147

>  <alias>  (326) 
XBHQZIACAMNBRL-UHFFFAOYSA-N-P52

>  <subsites>  (326) 


>  <placement_batch>  (326) 
CpKRS_FrAncestor_bulkdock_iter2

>  <name>  (326) 
XBHQZIACAMNBRL-UHFFFAOYSA-N-P52

$$$$
YJIMGEUSDUGLRJ-UHFFFAOYSA-N-P12
     RDKit          3D

 18 19  0  0  0  0  0  0  0  0999 V2000
    2.3764   -9.9217   22.8707 C   0  0  0  0  0  0  0  0  0  0  0  0
    3.2996  -10.9836   22.2789 C   0  0  0  0  0  0  0  0  0  0  0  0
    2.7107  -12.3709   22.5338 C   0  0  0  0  0  0  0  0  0  0  0  0
    4.8044  -10.8379   22.5706 C   0  0  1  0  0  0  0  0  0  0  0  0
    5.3720   -9.5045   22.0465 C   0  0  0  0  0  0  0  0  0  0  0  0
    5.5750   -8.5984   23.2591 C   0  0  0  0  0  0  0  0  0  0  0  0
    5.0992   -9.3832   24.4750 C   0  0  0  0  0  0  0  0  0  0  0  0
    5.1970  -10.8393   24.0338 C   0  0  1  0  0  0  0  0  0  0  0  0
    4.4729  -11.8055   24.7970 N   0  0  0  0  0  0  0  0  0  0  0  0
    4.7641  -13.2952   25.0598 C   0  0  0  0  0  0  0  0  0  0  0  0
    5.6797  -13.9501   24.7593 O   0  0  0  0  0  0  0  0  0  0  0  0
    3.6619  -13.8472   25.8763 C   0  0  0  0  0  0  0  0  0  0  0  0
    3.7620  -14.9105   26.8056 C   0  0  0  0  0  0  0  0  0  0  0  0
    2.5683  -14.8887   27.4681 C   0  0  0  0  0  0  0  0  0  0  0  0
    2.1080  -15.6897   28.8925 Cl  0  0  0  0  0  0  0  0  0  0  0  0
    1.7634  -13.9919   26.8337 N   0  0  0  0  0  0  0  0  0  0  0  0
    0.3599  -13.7262   27.0455 C   0  0  0  0  0  0  0  0  0  0  0  0
    2.4253  -13.2993   25.8817 N   0  0  0  0  0  0  0  0  0  0  0  0
  1  2  1  0
  2  3  1  0
  4  2  1  1
  4  5  1  0
  5  6  1  0
  6  7  1  0
  7  8  1  0
  8  9  1  1
  9 10  1  0
 10 11  2  0
 10 12  1  0
 12 13  1  0
 13 14  2  0
 14 15  1  0
 14 16  1  0
 16 17  1  0
 16 18  1  0
  8  4  1  0
 18 12  2  0
M  END
>  <inchikey>  (327) 
YJIMGEUSDUGLRJ-UHFFFAOYSA-N

>  <tags>  (327) 
fragmenstein_placed,CpKRS_FrAncestor_bulkdock_iter2

>  <ref_pdb>  (327) 
x0540b

>  <energy_score>  (327) 
-13.18485

>  <distance_score>  (327) 
0.560488

>  <HIPPO Pose ID>  (327) 
54353

>  <ref_mols>  (327) 
x0421b

>  <smiles>  (327) 
CC(C)C1CCCC1NC(=O)c1cc(Cl)n(C)n1

>  <HIPPO Compound ID>  (327) 
449148

>  <alias>  (327) 
YJIMGEUSDUGLRJ-UHFFFAOYSA-N-P12

>  <subsites>  (327) 


>  <placement_batch>  (327) 
CpKRS_FrAncestor_bulkdock_iter2

>  <name>  (327) 
YJIMGEUSDUGLRJ-UHFFFAOYSA-N-P12

$$$$
LZQJVBYIJFWTCU-UHFFFAOYSA-N-P11
     RDKit          3D

 17 18  0  0  0  0  0  0  0  0999 V2000
    3.5211   -8.5898   25.4546 C   0  0  0  0  0  0  0  0  0  0  0  0
    4.7892   -8.8770   24.6774 C   0  0  0  0  0  0  0  0  0  0  0  0
    5.7092   -7.6493   24.7407 C   0  0  0  0  0  0  0  0  0  0  0  0
    4.4192   -9.2591   23.2547 C   0  0  1  0  0  0  0  0  0  0  0  0
    5.5962   -9.1713   22.2932 C   0  0  0  0  0  0  0  0  0  0  0  0
    5.1509  -10.0469   21.1581 C   0  0  0  0  0  0  0  0  0  0  0  0
    4.5854  -11.2524   21.8694 C   0  0  0  0  0  0  0  0  0  0  0  0
    3.7358  -10.6248   22.9681 C   0  0  1  0  0  0  0  0  0  0  0  0
    3.4354  -11.5569   24.0094 N   0  0  0  0  0  0  0  0  0  0  0  0
    4.3336  -12.5806   24.7242 C   0  0  0  0  0  0  0  0  0  0  0  0
    5.4793  -12.7747   24.6325 O   0  0  0  0  0  0  0  0  0  0  0  0
    3.4651  -13.4292   25.5757 C   0  0  0  0  0  0  0  0  0  0  0  0
    3.8596  -14.5601   26.3382 C   0  0  0  0  0  0  0  0  0  0  0  0
    2.7105  -15.0274   26.9260 C   0  0  0  0  0  0  0  0  0  0  0  0
    1.7226  -14.1932   26.5089 N   0  0  0  0  0  0  0  0  0  0  0  0
    0.3282  -14.2803   26.8513 C   0  0  0  0  0  0  0  0  0  0  0  0
    2.1356  -13.1984   25.7032 N   0  0  0  0  0  0  0  0  0  0  0  0
  1  2  1  0
  2  3  1  0
  4  2  1  1
  4  5  1  0
  5  6  1  0
  6  7  1  0
  7  8  1  0
  8  9  1  1
  9 10  1  0
 10 11  2  0
 10 12  1  0
 12 13  1  0
 13 14  2  0
 14 15  1  0
 15 16  1  0
 15 17  1  0
  8  4  1  0
 17 12  2  0
M  END
>  <inchikey>  (328) 
LZQJVBYIJFWTCU-UHFFFAOYSA-N

>  <tags>  (328) 
fragmenstein_placed,CpKRS_FrAncestor_bulkdock_iter2

>  <ref_pdb>  (328) 
x0540b

>  <energy_score>  (328) 
-16.603721

>  <distance_score>  (328) 
0.669419

>  <HIPPO Pose ID>  (328) 
54356

>  <ref_mols>  (328) 
x0421a

>  <smiles>  (328) 
CC(C)C1CCCC1NC(=O)c1ccn(C)n1

>  <HIPPO Compound ID>  (328) 
449149

>  <alias>  (328) 
LZQJVBYIJFWTCU-UHFFFAOYSA-N-P11

>  <subsites>  (328) 


>  <placement_batch>  (328) 
CpKRS_FrAncestor_bulkdock_iter2

>  <name>  (328) 
LZQJVBYIJFWTCU-UHFFFAOYSA-N-P11

$$$$
VUPTZTLAAHTVGQ-UHFFFAOYSA-N-P11
     RDKit          3D

 18 19  0  0  0  0  0  0  0  0999 V2000
    4.4325   -8.3508   25.8007 C   0  0  0  0  0  0  0  0  0  0  0  0
    5.0018   -8.2111   24.4068 C   0  0  0  0  0  0  0  0  0  0  0  0
    6.2318   -7.3011   24.4494 C   0  0  0  0  0  0  0  0  0  0  0  0
    5.2738   -9.5542   23.6936 C   0  0  2  0  0  0  0  0  0  0  0  0
    5.8116   -9.2615   22.2686 C   0  0  0  0  0  0  0  0  0  0  0  0
    4.8943   -9.9684   21.3006 C   0  0  0  0  0  0  0  0  0  0  0  0
    4.3398  -11.1118   22.1053 C   0  0  0  0  0  0  0  0  0  0  0  0
    4.0252  -10.4375   23.4356 C   0  0  1  0  0  0  0  0  0  0  0  0
    3.6501  -11.4446   24.3862 N   0  0  0  0  0  0  0  0  0  0  0  0
    4.4162  -12.6866   24.8845 C   0  0  0  0  0  0  0  0  0  0  0  0
    5.5025  -13.0448   24.6593 O   0  0  0  0  0  0  0  0  0  0  0  0
    3.4719  -13.5030   25.6892 C   0  0  0  0  0  0  0  0  0  0  0  0
    2.1516  -13.1804   25.7413 N   0  0  0  0  0  0  0  0  0  0  0  0
    1.6176  -14.1640   26.4830 N   0  0  0  0  0  0  0  0  0  0  0  0
    0.1958  -14.1742   26.7021 C   0  0  0  0  0  0  0  0  0  0  0  0
    2.5161  -15.0551   26.9688 C   0  0  0  0  0  0  0  0  0  0  0  0
    3.7340  -14.6601   26.4724 C   0  0  0  0  0  0  0  0  0  0  0  0
    5.2178  -15.4160   26.7816 Cl  0  0  0  0  0  0  0  0  0  0  0  0
  1  2  1  0
  2  3  1  0
  4  2  1  6
  4  5  1  0
  5  6  1  0
  6  7  1  0
  7  8  1  0
  8  9  1  1
  9 10  1  0
 10 11  2  0
 10 12  1  0
 12 13  2  0
 13 14  1  0
 14 15  1  0
 14 16  1  0
 16 17  2  0
 17 18  1  0
  8  4  1  0
 17 12  1  0
M  END
>  <inchikey>  (329) 
VUPTZTLAAHTVGQ-UHFFFAOYSA-N

>  <tags>  (329) 
fragmenstein_placed,CpKRS_FrAncestor_bulkdock_iter2

>  <ref_pdb>  (329) 
x0540b

>  <energy_score>  (329) 
-20.24769

>  <distance_score>  (329) 
0.520971

>  <HIPPO Pose ID>  (329) 
54360

>  <ref_mols>  (329) 
x0421a

>  <smiles>  (329) 
CC(C)C1CCCC1NC(=O)c1nn(C)cc1Cl

>  <HIPPO Compound ID>  (329) 
449150

>  <alias>  (329) 
VUPTZTLAAHTVGQ-UHFFFAOYSA-N-P11

>  <subsites>  (329) 


>  <placement_batch>  (329) 
CpKRS_FrAncestor_bulkdock_iter2

>  <name>  (329) 
VUPTZTLAAHTVGQ-UHFFFAOYSA-N-P11

$$$$
ATARZBHLLBIPGN-UHFFFAOYSA-N-P12
     RDKit          3D

 18 19  0  0  0  0  0  0  0  0999 V2000
    4.5916  -11.6520   21.7713 C   0  0  0  0  0  0  0  0  0  0  0  0
    5.2188  -10.2811   21.8715 C   0  0  0  0  0  0  0  0  0  0  0  0
    4.8952   -9.4398   20.6689 C   0  0  0  0  0  0  0  0  0  0  0  0
    4.7685   -9.4624   23.0569 C   0  0  2  0  0  0  0  0  0  0  0  0
    5.5137   -8.1170   23.0688 C   0  0  0  0  0  0  0  0  0  0  0  0
    5.6535   -7.7285   24.5179 C   0  0  0  0  0  0  0  0  0  0  0  0
    4.9304   -8.8194   25.2842 C   0  0  0  0  0  0  0  0  0  0  0  0
    5.0849  -10.0610   24.4027 C   0  0  1  0  0  0  0  0  0  0  0  0
    4.2367  -11.1800   24.7337 N   0  0  0  0  0  0  0  0  0  0  0  0
    4.5837  -12.6735   24.9585 C   0  0  0  0  0  0  0  0  0  0  0  0
    5.5962  -13.2415   24.8350 O   0  0  0  0  0  0  0  0  0  0  0  0
    3.4023  -13.3658   25.4973 C   0  0  0  0  0  0  0  0  0  0  0  0
    2.1549  -12.8469   25.4161 N   0  0  0  0  0  0  0  0  0  0  0  0
    1.4033  -13.7129   26.1330 N   0  0  0  0  0  0  0  0  0  0  0  0
   -0.0033  -13.4558   26.3297 C   0  0  0  0  0  0  0  0  0  0  0  0
    2.0983  -14.7769   26.6243 C   0  0  0  0  0  0  0  0  0  0  0  0
    3.3882  -14.5723   26.2250 C   0  0  0  0  0  0  0  0  0  0  0  0
    4.4303  -15.3472   26.5443 F   0  0  0  0  0  0  0  0  0  0  0  0
  1  2  1  0
  2  3  1  0
  4  2  1  6
  4  5  1  0
  5  6  1  0
  6  7  1  0
  7  8  1  0
  8  9  1  1
  9 10  1  0
 10 11  2  0
 10 12  1  0
 12 13  2  0
 13 14  1  0
 14 15  1  0
 14 16  1  0
 16 17  2  0
 17 18  1  0
  8  4  1  0
 17 12  1  0
M  END
>  <inchikey>  (330) 
ATARZBHLLBIPGN-UHFFFAOYSA-N

>  <tags>  (330) 
fragmenstein_placed,CpKRS_FrAncestor_bulkdock_iter2

>  <ref_pdb>  (330) 
x0540b

>  <energy_score>  (330) 
-14.578438

>  <distance_score>  (330) 
0.974836

>  <HIPPO Pose ID>  (330) 
54365

>  <ref_mols>  (330) 
x0421b

>  <smiles>  (330) 
CC(C)C1CCCC1NC(=O)c1nn(C)cc1F

>  <HIPPO Compound ID>  (330) 
449151

>  <alias>  (330) 
ATARZBHLLBIPGN-UHFFFAOYSA-N-P12

>  <subsites>  (330) 


>  <placement_batch>  (330) 
CpKRS_FrAncestor_bulkdock_iter2

>  <name>  (330) 
ATARZBHLLBIPGN-UHFFFAOYSA-N-P12

$$$$
VFJMUMXEXVNJSQ-UHFFFAOYSA-N-P54
     RDKit          3D

 14 14  0  0  0  0  0  0  0  0999 V2000
   10.9145  -34.7579    8.8735 C   0  0  0  0  0  0  0  0  0  0  0  0
    9.8000  -35.2366    9.7521 C   0  0  0  0  0  0  0  0  0  0  0  0
    9.7986  -36.4463   10.3316 C   0  0  0  0  0  0  0  0  0  0  0  0
    8.7193  -37.0694   11.1209 C   0  0  0  0  0  0  0  0  0  0  0  0
    9.1017  -37.7559   12.2845 C   0  0  0  0  0  0  0  0  0  0  0  0
    8.1729  -38.4841   13.0339 C   0  0  0  0  0  0  0  0  0  0  0  0
    6.8449  -38.5514   12.6265 C   0  0  0  0  0  0  0  0  0  0  0  0
    6.4438  -37.8828   11.4717 C   0  0  0  0  0  0  0  0  0  0  0  0
    7.3687  -37.1388   10.7253 C   0  0  0  0  0  0  0  0  0  0  0  0
    6.8688  -36.5006    9.5430 N   0  0  0  0  0  0  0  0  0  0  0  0
    7.1983  -37.2705    8.0673 S   0  0  0  0  0  0  0  0  0  0  0  0
    5.7410  -38.2552    7.8699 C   0  0  0  0  0  0  0  0  0  0  0  0
    8.3321  -38.1595    8.1745 O   0  0  0  0  0  0  0  0  0  0  0  0
    7.1518  -36.2228    7.0685 O   0  0  0  0  0  0  0  0  0  0  0  0
  1  2  1  0
  2  3  2  3
  3  4  1  0
  4  5  2  0
  5  6  1  0
  6  7  2  0
  7  8  1  0
  8  9  2  0
  9 10  1  0
 10 11  1  0
 11 12  1  0
 11 13  2  0
 11 14  2  0
  9  4  1  0
M  END
>  <inchikey>  (331) 
VFJMUMXEXVNJSQ-UHFFFAOYSA-N

>  <tags>  (331) 
fragmenstein_placed,CpKRS_FrAncestor_bulkdock_iter2

>  <ref_pdb>  (331) 
x0540b

>  <energy_score>  (331) 
-36.326356

>  <distance_score>  (331) 
0.57411

>  <HIPPO Pose ID>  (331) 
54370

>  <ref_mols>  (331) 
x0639c

>  <smiles>  (331) 
CC=Cc1ccccc1NS(C)(=O)=O

>  <HIPPO Compound ID>  (331) 
449152

>  <alias>  (331) 
VFJMUMXEXVNJSQ-UHFFFAOYSA-N-P54

>  <subsites>  (331) 


>  <placement_batch>  (331) 
CpKRS_FrAncestor_bulkdock_iter2

>  <name>  (331) 
VFJMUMXEXVNJSQ-UHFFFAOYSA-N-P54

$$$$
LMGGEMKSUZIIKL-UHFFFAOYSA-N-P54
     RDKit          3D

 14 14  0  0  0  0  0  0  0  0999 V2000
    6.6569  -35.1282    9.3760 C   0  0  0  0  0  0  0  0  0  0  0  0
    6.9901  -36.4272    9.3964 C   0  0  0  0  0  0  0  0  0  0  0  0
    6.9986  -37.2678    8.1554 C   0  0  0  0  0  0  0  0  0  0  0  0
    7.3872  -37.1102   10.6487 C   0  0  0  0  0  0  0  0  0  0  0  0
    6.4647  -37.9967   11.2334 C   0  0  0  0  0  0  0  0  0  0  0  0
    6.7761  -38.6723   12.4123 C   0  0  0  0  0  0  0  0  0  0  0  0
    8.0028  -38.4529   13.0271 C   0  0  0  0  0  0  0  0  0  0  0  0
    8.9250  -37.5656   12.4641 C   0  0  0  0  0  0  0  0  0  0  0  0
    8.6520  -36.9182   11.2556 C   0  0  0  0  0  0  0  0  0  0  0  0
    9.5653  -35.9716   10.6743 N   0  0  0  0  0  0  0  0  0  0  0  0
   11.2298  -36.1099   10.7872 S   0  0  0  0  0  0  0  0  0  0  0  0
   11.5481  -37.7562   10.1784 C   0  0  0  0  0  0  0  0  0  0  0  0
   11.7527  -35.1796    9.8079 O   0  0  0  0  0  0  0  0  0  0  0  0
   11.6443  -36.0194   12.1701 O   0  0  0  0  0  0  0  0  0  0  0  0
  1  2  2  0
  2  3  1  0
  2  4  1  0
  4  5  2  0
  5  6  1  0
  6  7  2  0
  7  8  1  0
  8  9  2  0
  9 10  1  0
 10 11  1  0
 11 12  1  0
 11 13  2  0
 11 14  2  0
  9  4  1  0
M  END
>  <inchikey>  (332) 
LMGGEMKSUZIIKL-UHFFFAOYSA-N

>  <tags>  (332) 
fragmenstein_placed,CpKRS_FrAncestor_bulkdock_iter2

>  <ref_pdb>  (332) 
x0540b

>  <energy_score>  (332) 
-38.351895

>  <distance_score>  (332) 
0.664476

>  <HIPPO Pose ID>  (332) 
54373

>  <ref_mols>  (332) 
x0639c

>  <smiles>  (332) 
C=C(C)c1ccccc1NS(C)(=O)=O

>  <HIPPO Compound ID>  (332) 
449153

>  <alias>  (332) 
LMGGEMKSUZIIKL-UHFFFAOYSA-N-P54

>  <subsites>  (332) 


>  <placement_batch>  (332) 
CpKRS_FrAncestor_bulkdock_iter2

>  <name>  (332) 
LMGGEMKSUZIIKL-UHFFFAOYSA-N-P54

$$$$
CASJONQAGVAUOZ-UHFFFAOYSA-N-P54
     RDKit          3D

 14 14  0  0  0  0  0  0  0  0999 V2000
    5.6018  -35.6986    9.7089 C   0  0  0  0  0  0  0  0  0  0  0  0
    6.3822  -36.9834    9.4516 C   0  0  0  0  0  0  0  0  0  0  0  0
    7.2151  -36.8790    8.1753 C   0  0  0  0  0  0  0  0  0  0  0  0
    7.1019  -37.4609   10.7078 C   0  0  0  0  0  0  0  0  0  0  0  0
    6.3839  -38.3817   11.5091 C   0  0  0  0  0  0  0  0  0  0  0  0
    6.9147  -38.9079   12.6858 C   0  0  0  0  0  0  0  0  0  0  0  0
    8.1786  -38.5202   13.0989 C   0  0  0  0  0  0  0  0  0  0  0  0
    8.9008  -37.5997   12.3423 C   0  0  0  0  0  0  0  0  0  0  0  0
    8.3760  -37.0621   11.1581 C   0  0  0  0  0  0  0  0  0  0  0  0
    9.1857  -36.1096   10.4600 N   0  0  0  0  0  0  0  0  0  0  0  0
   10.5092  -36.7022    9.5806 S   0  0  0  0  0  0  0  0  0  0  0  0
   11.8636  -36.3490   10.6792 C   0  0  0  0  0  0  0  0  0  0  0  0
   10.4057  -38.1315    9.3998 O   0  0  0  0  0  0  0  0  0  0  0  0
   10.6389  -35.8072    8.4493 O   0  0  0  0  0  0  0  0  0  0  0  0
  1  2  1  0
  2  3  1  0
  2  4  1  0
  4  5  2  0
  5  6  1  0
  6  7  2  0
  7  8  1  0
  8  9  2  0
  9 10  1  0
 10 11  1  0
 11 12  1  0
 11 13  2  0
 11 14  2  0
  9  4  1  0
M  END
>  <inchikey>  (333) 
CASJONQAGVAUOZ-UHFFFAOYSA-N

>  <tags>  (333) 
fragmenstein_placed,CpKRS_FrAncestor_bulkdock_iter2

>  <ref_pdb>  (333) 
x0540b

>  <energy_score>  (333) 
-39.009545

>  <distance_score>  (333) 
0.631311

>  <HIPPO Pose ID>  (333) 
54376

>  <ref_mols>  (333) 
x0639c

>  <smiles>  (333) 
CC(C)c1ccccc1NS(C)(=O)=O

>  <HIPPO Compound ID>  (333) 
449154

>  <alias>  (333) 
CASJONQAGVAUOZ-UHFFFAOYSA-N-P54

>  <subsites>  (333) 


>  <placement_batch>  (333) 
CpKRS_FrAncestor_bulkdock_iter2

>  <name>  (333) 
CASJONQAGVAUOZ-UHFFFAOYSA-N-P54

$$$$
OGAUXGQLRXYROS-UHFFFAOYSA-N-P53
     RDKit          3D

 14 14  0  0  0  0  0  0  0  0999 V2000
   20.9768    8.9946   26.2174 C   0  0  0  0  0  0  0  0  0  0  0  0
   21.8720    8.0702   25.3991 C   0  0  0  0  0  0  0  0  0  0  0  0
   21.0425    7.0028   24.6756 C   0  0  0  0  0  0  0  0  0  0  0  0
   22.6926    8.8596   24.4004 C   0  0  0  0  0  0  0  0  0  0  0  0
   22.0238    9.5963   23.4156 C   0  0  0  0  0  0  0  0  0  0  0  0
   22.7372   10.3065   22.4630 C   0  0  0  0  0  0  0  0  0  0  0  0
   24.1213   10.3807   22.5060 C   0  0  0  0  0  0  0  0  0  0  0  0
   24.8044    9.6645   23.4773 C   0  0  0  0  0  0  0  0  0  0  0  0
   24.0945    8.8709   24.3835 C   0  0  0  0  0  0  0  0  0  0  0  0
   24.8333    8.1390   25.2725 O   0  0  0  0  0  0  0  0  0  0  0  0
   25.1437    6.5656   24.9686 S   0  0  0  0  0  0  0  0  0  0  0  0
   24.7103    6.2430   23.3808 N   0  0  0  0  0  0  0  0  0  0  0  0
   26.5781    6.3735   25.0077 O   0  0  0  0  0  0  0  0  0  0  0  0
   24.2763    5.7538   25.7936 O   0  0  0  0  0  0  0  0  0  0  0  0
  1  2  1  0
  2  3  1  0
  2  4  1  0
  4  5  2  0
  5  6  1  0
  6  7  2  0
  7  8  1  0
  8  9  2  0
  9 10  1  0
 10 11  1  0
 11 12  1  0
 11 13  2  0
 11 14  2  0
  9  4  1  0
M  END
>  <inchikey>  (334) 
OGAUXGQLRXYROS-UHFFFAOYSA-N

>  <tags>  (334) 
fragmenstein_placed,CpKRS_FrAncestor_bulkdock_iter2

>  <ref_pdb>  (334) 
x0540b

>  <energy_score>  (334) 
-29.590559

>  <distance_score>  (334) 
0.768247

>  <HIPPO Pose ID>  (334) 
54378

>  <ref_mols>  (334) 
x0639b

>  <smiles>  (334) 
CC(C)c1ccccc1OS(N)(=O)=O

>  <HIPPO Compound ID>  (334) 
449155

>  <alias>  (334) 
OGAUXGQLRXYROS-UHFFFAOYSA-N-P53

>  <subsites>  (334) 


>  <placement_batch>  (334) 
CpKRS_FrAncestor_bulkdock_iter2

>  <name>  (334) 
OGAUXGQLRXYROS-UHFFFAOYSA-N-P53

$$$$
PCQNVIMLTCGEMF-UHFFFAOYSA-N-P54
     RDKit          3D

 13 13  0  0  0  0  0  0  0  0999 V2000
    4.9775  -36.2942    9.4133 C   0  0  0  0  0  0  0  0  0  0  0  0
    6.5196  -36.3363    9.4818 C   0  0  0  0  0  0  0  0  0  0  0  0
    7.0121  -34.8776    9.4271 C   0  0  0  0  0  0  0  0  0  0  0  0
    7.0674  -37.1226   10.6898 C   0  0  0  0  0  0  0  0  0  0  0  0
    6.2449  -37.9652   11.4661 C   0  0  0  0  0  0  0  0  0  0  0  0
    6.7423  -38.6533   12.5783 C   0  0  0  0  0  0  0  0  0  0  0  0
    8.0768  -38.5236   12.9402 C   0  0  0  0  0  0  0  0  0  0  0  0
    8.9171  -37.7164   12.1830 C   0  0  0  0  0  0  0  0  0  0  0  0
    8.4210  -37.0280   11.0708 C   0  0  0  0  0  0  0  0  0  0  0  0
    7.1479  -37.1640    7.9469 S   0  0  0  0  0  0  0  0  0  0  0  0
    6.6364  -38.7477    8.1081 N   0  0  0  0  0  0  0  0  0  0  0  0
    6.4306  -36.6674    6.7927 O   0  0  0  0  0  0  0  0  0  0  0  0
    8.5923  -37.2262    7.9462 O   0  0  0  0  0  0  0  0  0  0  0  0
  1  2  1  0
  2  3  1  0
  2  4  1  0
  4  5  2  0
  5  6  1  0
  6  7  2  0
  7  8  1  0
  8  9  2  0
  2 10  1  0
 10 11  1  0
 10 12  2  0
 10 13  2  0
  9  4  1  0
M  END
>  <inchikey>  (335) 
PCQNVIMLTCGEMF-UHFFFAOYSA-N

>  <tags>  (335) 
fragmenstein_placed,CpKRS_FrAncestor_bulkdock_iter2

>  <ref_pdb>  (335) 
x0540b

>  <energy_score>  (335) 
-37.420389

>  <distance_score>  (335) 
0.487143

>  <HIPPO Pose ID>  (335) 
54382

>  <ref_mols>  (335) 
x0639c

>  <smiles>  (335) 
CC(C)(c1ccccc1)S(N)(=O)=O

>  <HIPPO Compound ID>  (335) 
449156

>  <alias>  (335) 
PCQNVIMLTCGEMF-UHFFFAOYSA-N-P54

>  <subsites>  (335) 


>  <placement_batch>  (335) 
CpKRS_FrAncestor_bulkdock_iter2

>  <name>  (335) 
PCQNVIMLTCGEMF-UHFFFAOYSA-N-P54

$$$$
MJGJMQGRZOEPJD-UHFFFAOYSA-N-P54
     RDKit          3D

 13 13  0  0  0  0  0  0  0  0999 V2000
   10.4798  -37.6906    9.6492 C   0  0  0  0  0  0  0  0  0  0  0  0
    9.7180  -36.7514   10.5909 C   0  0  0  0  0  0  0  0  0  0  0  0
   10.6874  -36.1037   11.5854 C   0  0  0  0  0  0  0  0  0  0  0  0
    8.5852  -37.4947   11.2891 C   0  0  0  0  0  0  0  0  0  0  0  0
    8.9171  -38.4080   12.3130 C   0  0  0  0  0  0  0  0  0  0  0  0
    7.9414  -39.1230   13.0091 C   0  0  0  0  0  0  0  0  0  0  0  0
    6.6019  -38.9707   12.6833 C   0  0  0  0  0  0  0  0  0  0  0  0
    6.2369  -38.0895   11.6701 C   0  0  0  0  0  0  0  0  0  0  0  0
    7.2137  -37.3459   10.9806 C   0  0  0  0  0  0  0  0  0  0  0  0
    6.6069  -36.1383    9.8116 S   0  0  0  0  0  0  0  0  0  0  0  0
    7.2142  -36.6853    8.3478 N   0  0  0  0  0  0  0  0  0  0  0  0
    5.1678  -36.2497    9.7437 O   0  0  0  0  0  0  0  0  0  0  0  0
    7.2425  -34.8741   10.1130 O   0  0  0  0  0  0  0  0  0  0  0  0
  1  2  1  0
  2  3  1  0
  2  4  1  0
  4  5  2  0
  5  6  1  0
  6  7  2  0
  7  8  1  0
  8  9  2  0
  9 10  1  0
 10 11  1  0
 10 12  2  0
 10 13  2  0
  9  4  1  0
M  END
>  <inchikey>  (336) 
MJGJMQGRZOEPJD-UHFFFAOYSA-N

>  <tags>  (336) 
fragmenstein_placed,CpKRS_FrAncestor_bulkdock_iter2

>  <ref_pdb>  (336) 
x0540b

>  <energy_score>  (336) 
-39.641426

>  <distance_score>  (336) 
0.432503

>  <HIPPO Pose ID>  (336) 
54385

>  <ref_mols>  (336) 
x0639c

>  <smiles>  (336) 
CC(C)c1ccccc1S(N)(=O)=O

>  <HIPPO Compound ID>  (336) 
449157

>  <alias>  (336) 
MJGJMQGRZOEPJD-UHFFFAOYSA-N-P54

>  <subsites>  (336) 


>  <placement_batch>  (336) 
CpKRS_FrAncestor_bulkdock_iter2

>  <name>  (336) 
MJGJMQGRZOEPJD-UHFFFAOYSA-N-P54

$$$$
PMOTYADHFATPGX-UHFFFAOYSA-N-P54
     RDKit          3D

 13 13  0  0  0  0  0  0  0  0999 V2000
    6.2430  -34.0448    8.3186 C   0  0  0  0  0  0  0  0  0  0  0  0
    6.9196  -34.8672    9.4074 C   0  0  0  0  0  0  0  0  0  0  0  0
    6.5523  -36.3578    9.3925 C   0  0  2  0  0  0  0  0  0  0  0  0
    7.0684  -37.1150   10.6136 C   0  0  0  0  0  0  0  0  0  0  0  0
    8.4087  -37.0431   11.0307 C   0  0  0  0  0  0  0  0  0  0  0  0
    8.8413  -37.7303   12.1680 C   0  0  0  0  0  0  0  0  0  0  0  0
    7.9468  -38.5028   12.9039 C   0  0  0  0  0  0  0  0  0  0  0  0
    6.6182  -38.5953   12.5008 C   0  0  0  0  0  0  0  0  0  0  0  0
    6.1812  -37.9075   11.3655 C   0  0  0  0  0  0  0  0  0  0  0  0
    7.1676  -37.1668    7.8882 S   0  0  0  0  0  0  0  0  0  0  0  0
    6.7918  -38.7784    8.1265 N   0  0  0  0  0  0  0  0  0  0  0  0
    6.3487  -36.7826    6.7594 O   0  0  0  0  0  0  0  0  0  0  0  0
    8.6102  -37.1059    7.8252 O   0  0  0  0  0  0  0  0  0  0  0  0
  1  2  1  0
  3  2  1  1
  3  4  1  0
  4  5  2  0
  5  6  1  0
  6  7  2  0
  7  8  1  0
  8  9  2  0
  3 10  1  0
 10 11  1  0
 10 12  2  0
 10 13  2  0
  9  4  1  0
M  END
>  <inchikey>  (337) 
PMOTYADHFATPGX-UHFFFAOYSA-N

>  <tags>  (337) 
fragmenstein_placed,CpKRS_FrAncestor_bulkdock_iter2

>  <ref_pdb>  (337) 
x0540b

>  <energy_score>  (337) 
-31.927478

>  <distance_score>  (337) 
0.559016

>  <HIPPO Pose ID>  (337) 
54388

>  <ref_mols>  (337) 
x0639c

>  <smiles>  (337) 
CCC(c1ccccc1)S(N)(=O)=O

>  <HIPPO Compound ID>  (337) 
449158

>  <alias>  (337) 
PMOTYADHFATPGX-UHFFFAOYSA-N-P54

>  <subsites>  (337) 


>  <placement_batch>  (337) 
CpKRS_FrAncestor_bulkdock_iter2

>  <name>  (337) 
PMOTYADHFATPGX-UHFFFAOYSA-N-P54

$$$$
QZZZWEIWYVXIHQ-UHFFFAOYSA-N-P52
     RDKit          3D

 13 13  0  0  0  0  0  0  0  0999 V2000
   20.0881   12.7041   25.0604 C   0  0  0  0  0  0  0  0  0  0  0  0
   21.2786   11.9128   24.5938 C   0  0  0  0  0  0  0  0  0  0  0  0
   21.0962   10.5196   23.9977 C   0  0  0  0  0  0  0  0  0  0  0  0
   22.4896    9.9154   23.8599 C   0  0  0  0  0  0  0  0  0  0  0  0
   23.3786   10.5023   22.9353 C   0  0  0  0  0  0  0  0  0  0  0  0
   24.7238   10.1382   22.8682 C   0  0  0  0  0  0  0  0  0  0  0  0
   25.2133    9.1471   23.7055 C   0  0  0  0  0  0  0  0  0  0  0  0
   24.3514    8.5134   24.5966 C   0  0  0  0  0  0  0  0  0  0  0  0
   22.9995    8.8938   24.6810 C   0  0  0  0  0  0  0  0  0  0  0  0
   21.9940    8.0315   25.8623 S   0  0  0  0  0  0  0  0  0  0  0  0
   21.5479    9.2469   26.9497 N   0  0  0  0  0  0  0  0  0  0  0  0
   20.8072    7.5352   25.2211 O   0  0  0  0  0  0  0  0  0  0  0  0
   22.8538    7.1765   26.6505 O   0  0  0  0  0  0  0  0  0  0  0  0
  1  2  1  0
  2  3  1  0
  3  4  1  0
  4  5  2  0
  5  6  1  0
  6  7  2  0
  7  8  1  0
  8  9  2  0
  9 10  1  0
 10 11  1  0
 10 12  2  0
 10 13  2  0
  9  4  1  0
M  END
>  <inchikey>  (338) 
QZZZWEIWYVXIHQ-UHFFFAOYSA-N

>  <tags>  (338) 
fragmenstein_placed,CpKRS_FrAncestor_bulkdock_iter2

>  <ref_pdb>  (338) 
x0540b

>  <energy_score>  (338) 
-27.588379

>  <distance_score>  (338) 
0.477613

>  <HIPPO Pose ID>  (338) 
54389

>  <ref_mols>  (338) 
x0639a

>  <smiles>  (338) 
CCCc1ccccc1S(N)(=O)=O

>  <HIPPO Compound ID>  (338) 
449159

>  <alias>  (338) 
QZZZWEIWYVXIHQ-UHFFFAOYSA-N-P52

>  <subsites>  (338) 


>  <placement_batch>  (338) 
CpKRS_FrAncestor_bulkdock_iter2

>  <name>  (338) 
QZZZWEIWYVXIHQ-UHFFFAOYSA-N-P52

$$$$
HLSZHEZFBWYUFI-UHFFFAOYSA-N-P54
     RDKit          3D

 13 13  0  0  0  0  0  0  0  0999 V2000
   10.8167  -36.1778   11.3620 C   0  0  0  0  0  0  0  0  0  0  0  0
    9.6831  -36.7124   10.4778 C   0  0  0  0  0  0  0  0  0  0  0  0
   10.2514  -37.6260    9.3881 C   0  0  0  0  0  0  0  0  0  0  0  0
    8.5971  -37.4443   11.2594 C   0  0  0  0  0  0  0  0  0  0  0  0
    8.9663  -38.3184   12.3010 C   0  0  0  0  0  0  0  0  0  0  0  0
    8.0130  -39.0154   13.0475 C   0  0  0  0  0  0  0  0  0  0  0  0
    6.6617  -38.8816   12.7585 C   0  0  0  0  0  0  0  0  0  0  0  0
    6.2600  -38.0396   11.7270 C   0  0  0  0  0  0  0  0  0  0  0  0
    7.2163  -37.3202   10.9870 C   0  0  0  0  0  0  0  0  0  0  0  0
    6.5994  -36.1888    9.7559 S   0  0  0  0  0  0  0  0  0  0  0  0
    7.0649  -34.8627   10.1195 O   0  0  0  0  0  0  0  0  0  0  0  0
    5.1878  -36.4529    9.5556 O   0  0  0  0  0  0  0  0  0  0  0  0
    7.3032  -36.5624    8.3815 F   0  0  0  0  0  0  0  0  0  0  0  0
  1  2  1  0
  2  3  1  0
  2  4  1  0
  4  5  2  0
  5  6  1  0
  6  7  2  0
  7  8  1  0
  8  9  2  0
  9 10  1  0
 10 11  2  0
 10 12  2  0
 10 13  1  0
  9  4  1  0
M  END
>  <inchikey>  (339) 
HLSZHEZFBWYUFI-UHFFFAOYSA-N

>  <tags>  (339) 
fragmenstein_placed,CpKRS_FrAncestor_bulkdock_iter2

>  <ref_pdb>  (339) 
x0540b

>  <energy_score>  (339) 
-34.393586

>  <distance_score>  (339) 
0.302512

>  <HIPPO Pose ID>  (339) 
54394

>  <ref_mols>  (339) 
x0639c

>  <smiles>  (339) 
CC(C)c1ccccc1S(=O)(=O)F

>  <HIPPO Compound ID>  (339) 
449160

>  <alias>  (339) 
HLSZHEZFBWYUFI-UHFFFAOYSA-N-P54

>  <subsites>  (339) 


>  <placement_batch>  (339) 
CpKRS_FrAncestor_bulkdock_iter2

>  <name>  (339) 
HLSZHEZFBWYUFI-UHFFFAOYSA-N-P54

$$$$
ISJKNWDWGAFJGQ-UHFFFAOYSA-N-P54
     RDKit          3D

 13 13  0  0  0  0  0  0  0  0999 V2000
   11.6725  -35.4829   10.3163 C   0  0  0  0  0  0  0  0  0  0  0  0
   10.5757  -36.0802   11.1840 C   0  0  0  0  0  0  0  0  0  0  0  0
    9.6741  -37.0102   10.3751 C   0  0  0  0  0  0  0  0  0  0  0  0
    8.5614  -37.6155   11.2027 C   0  0  0  0  0  0  0  0  0  0  0  0
    8.9202  -38.4860   12.2488 C   0  0  0  0  0  0  0  0  0  0  0  0
    7.9554  -39.0858   13.0594 C   0  0  0  0  0  0  0  0  0  0  0  0
    6.6051  -38.8509   12.8301 C   0  0  0  0  0  0  0  0  0  0  0  0
    6.2180  -37.9989   11.7996 C   0  0  0  0  0  0  0  0  0  0  0  0
    7.1894  -37.3739   10.9981 C   0  0  0  0  0  0  0  0  0  0  0  0
    6.6218  -36.2010    9.7865 S   0  0  0  0  0  0  0  0  0  0  0  0
    5.1815  -36.3223    9.6698 O   0  0  0  0  0  0  0  0  0  0  0  0
    7.2415  -34.9266   10.1027 O   0  0  0  0  0  0  0  0  0  0  0  0
    7.2024  -36.6587    8.3796 F   0  0  0  0  0  0  0  0  0  0  0  0
  1  2  1  0
  2  3  1  0
  3  4  1  0
  4  5  2  0
  5  6  1  0
  6  7  2  0
  7  8  1  0
  8  9  2  0
  9 10  1  0
 10 11  2  0
 10 12  2  0
 10 13  1  0
  9  4  1  0
M  END
>  <inchikey>  (340) 
ISJKNWDWGAFJGQ-UHFFFAOYSA-N

>  <tags>  (340) 
fragmenstein_placed,CpKRS_FrAncestor_bulkdock_iter2

>  <ref_pdb>  (340) 
x0540b

>  <energy_score>  (340) 
-35.548638

>  <distance_score>  (340) 
0.395077

>  <HIPPO Pose ID>  (340) 
54397

>  <ref_mols>  (340) 
x0639c

>  <smiles>  (340) 
CCCc1ccccc1S(=O)(=O)F

>  <HIPPO Compound ID>  (340) 
449161

>  <alias>  (340) 
ISJKNWDWGAFJGQ-UHFFFAOYSA-N-P54

>  <subsites>  (340) 


>  <placement_batch>  (340) 
CpKRS_FrAncestor_bulkdock_iter2

>  <name>  (340) 
ISJKNWDWGAFJGQ-UHFFFAOYSA-N-P54

$$$$
HEMIXGUSSGYDFQ-UHFFFAOYSA-N-P54
     RDKit          3D

 17 17  0  0  0  0  0  0  0  0999 V2000
   10.6998  -37.9207    9.9397 C   0  0  0  0  0  0  0  0  0  0  0  0
    9.7071  -36.9223   10.5506 C   0  0  0  0  0  0  0  0  0  0  0  0
   10.4431  -35.9613   11.4805 C   0  0  0  0  0  0  0  0  0  0  0  0
    8.5743  -37.6178   11.2938 C   0  0  0  0  0  0  0  0  0  0  0  0
    8.9099  -38.4927   12.3491 C   0  0  0  0  0  0  0  0  0  0  0  0
    7.9347  -39.1557   13.0944 C   0  0  0  0  0  0  0  0  0  0  0  0
    6.5913  -38.9735   12.8014 C   0  0  0  0  0  0  0  0  0  0  0  0
    6.2228  -38.1097   11.7747 C   0  0  0  0  0  0  0  0  0  0  0  0
    7.2001  -37.4258   11.0257 C   0  0  0  0  0  0  0  0  0  0  0  0
    6.5989  -36.2065    9.8652 S   0  0  0  0  0  0  0  0  0  0  0  0
    7.3498  -34.9893   10.1043 O   0  0  0  0  0  0  0  0  0  0  0  0
    5.1546  -36.1698    9.9440 O   0  0  0  0  0  0  0  0  0  0  0  0
    7.0445  -36.7805    8.3677 N   0  0  0  0  0  0  0  0  0  0  0  0
    6.5551  -37.9946    7.6862 C   0  0  0  0  0  0  0  0  0  0  0  0
    7.5148  -39.1537    7.9660 C   0  0  0  0  0  0  0  0  0  0  0  0
    6.5840  -37.6857    6.1772 C   0  0  0  0  0  0  0  0  0  0  0  0
    5.1270  -38.3894    8.0637 C   0  0  0  0  0  0  0  0  0  0  0  0
  1  2  1  0
  2  3  1  0
  2  4  1  0
  4  5  2  0
  5  6  1  0
  6  7  2  0
  7  8  1  0
  8  9  2  0
  9 10  1  0
 10 11  2  0
 10 12  2  0
 10 13  1  0
 13 14  1  0
 14 15  1  0
 14 16  1  0
 14 17  1  0
  9  4  1  0
M  END
>  <inchikey>  (341) 
HEMIXGUSSGYDFQ-UHFFFAOYSA-N

>  <tags>  (341) 
fragmenstein_placed,CpKRS_FrAncestor_bulkdock_iter2

>  <ref_pdb>  (341) 
x0540b

>  <energy_score>  (341) 
-73.509735

>  <distance_score>  (341) 
0.382857

>  <HIPPO Pose ID>  (341) 
54400

>  <ref_mols>  (341) 
x0639c

>  <smiles>  (341) 
CC(C)c1ccccc1S(=O)(=O)NC(C)(C)C

>  <HIPPO Compound ID>  (341) 
449162

>  <alias>  (341) 
HEMIXGUSSGYDFQ-UHFFFAOYSA-N-P54

>  <subsites>  (341) 


>  <placement_batch>  (341) 
CpKRS_FrAncestor_bulkdock_iter2

>  <name>  (341) 
HEMIXGUSSGYDFQ-UHFFFAOYSA-N-P54

$$$$
ZLILWGODIRAEQJ-UHFFFAOYSA-N-P54
     RDKit          3D

 15 15  0  0  0  0  0  0  0  0999 V2000
   10.4171  -37.7106    9.5830 C   0  0  0  0  0  0  0  0  0  0  0  0
    9.7022  -36.7580   10.5472 C   0  0  0  0  0  0  0  0  0  0  0  0
   10.7149  -36.1214   11.5055 C   0  0  0  0  0  0  0  0  0  0  0  0
    8.5832  -37.4845   11.2849 C   0  0  0  0  0  0  0  0  0  0  0  0
    8.9252  -38.3849   12.3156 C   0  0  0  0  0  0  0  0  0  0  0  0
    7.9541  -39.0832   13.0358 C   0  0  0  0  0  0  0  0  0  0  0  0
    6.6100  -38.9246   12.7296 C   0  0  0  0  0  0  0  0  0  0  0  0
    6.2353  -38.0552   11.7099 C   0  0  0  0  0  0  0  0  0  0  0  0
    7.2089  -37.3321   10.9943 C   0  0  0  0  0  0  0  0  0  0  0  0
    6.6040  -36.1431    9.8025 S   0  0  0  0  0  0  0  0  0  0  0  0
    5.1625  -36.2731    9.7187 O   0  0  0  0  0  0  0  0  0  0  0  0
    7.1913  -34.8628   10.1470 O   0  0  0  0  0  0  0  0  0  0  0  0
    7.2458  -36.6874    8.3206 N   0  0  0  0  0  0  0  0  0  0  0  0
    6.7437  -38.0046    7.8698 C   0  0  0  0  0  0  0  0  0  0  0  0
    7.1647  -35.6737    7.2454 C   0  0  0  0  0  0  0  0  0  0  0  0
  1  2  1  0
  2  3  1  0
  2  4  1  0
  4  5  2  0
  5  6  1  0
  6  7  2  0
  7  8  1  0
  8  9  2  0
  9 10  1  0
 10 11  2  0
 10 12  2  0
 10 13  1  0
 13 14  1  0
 13 15  1  0
  9  4  1  0
M  END
>  <inchikey>  (342) 
ZLILWGODIRAEQJ-UHFFFAOYSA-N

>  <tags>  (342) 
fragmenstein_placed,CpKRS_FrAncestor_bulkdock_iter2

>  <ref_pdb>  (342) 
x0540b

>  <energy_score>  (342) 
-72.833757

>  <distance_score>  (342) 
0.304145

>  <HIPPO Pose ID>  (342) 
54403

>  <ref_mols>  (342) 
x0639c

>  <smiles>  (342) 
CC(C)c1ccccc1S(=O)(=O)N(C)C

>  <HIPPO Compound ID>  (342) 
311277

>  <alias>  (342) 
ZLILWGODIRAEQJ-UHFFFAOYSA-N-P54

>  <subsites>  (342) 


>  <placement_batch>  (342) 
CpKRS_FrAncestor_bulkdock_iter2

>  <name>  (342) 
ZLILWGODIRAEQJ-UHFFFAOYSA-N-P54

$$$$
GWSXVYYGFIINNI-UHFFFAOYSA-N-P52
     RDKit          3D

 15 15  0  0  0  0  0  0  0  0999 V2000
   19.8935   12.9096   25.1867 C   0  0  0  0  0  0  0  0  0  0  0  0
   21.1383   12.1884   24.7518 C   0  0  0  0  0  0  0  0  0  0  0  0
   21.0689   10.8006   24.1205 C   0  0  0  0  0  0  0  0  0  0  0  0
   22.4860   10.2370   24.0502 C   0  0  0  0  0  0  0  0  0  0  0  0
   23.4056   10.8373   23.1678 C   0  0  0  0  0  0  0  0  0  0  0  0
   24.7470   10.4541   23.1104 C   0  0  0  0  0  0  0  0  0  0  0  0
   25.2092    9.4332   23.9249 C   0  0  0  0  0  0  0  0  0  0  0  0
   24.3209    8.7878   24.7789 C   0  0  0  0  0  0  0  0  0  0  0  0
   22.9686    9.1795   24.8423 C   0  0  0  0  0  0  0  0  0  0  0  0
   21.9045    8.2269   25.9087 S   0  0  0  0  0  0  0  0  0  0  0  0
   22.7156    7.2081   26.5432 O   0  0  0  0  0  0  0  0  0  0  0  0
   21.1237    9.1421   26.7092 O   0  0  0  0  0  0  0  0  0  0  0  0
   20.8940    7.4635   24.8233 N   0  0  0  0  0  0  0  0  0  0  0  0
   21.4599    6.5986   23.7900 C   0  0  0  0  0  0  0  0  0  0  0  0
   21.3918    7.2882   22.4405 C   0  0  0  0  0  0  0  0  0  0  0  0
  1  2  1  0
  2  3  1  0
  3  4  1  0
  4  5  2  0
  5  6  1  0
  6  7  2  0
  7  8  1  0
  8  9  2  0
  9 10  1  0
 10 11  2  0
 10 12  2  0
 10 13  1  0
 13 14  1  0
 14 15  1  0
  9  4  1  0
M  END
>  <inchikey>  (343) 
GWSXVYYGFIINNI-UHFFFAOYSA-N

>  <tags>  (343) 
fragmenstein_placed,CpKRS_FrAncestor_bulkdock_iter2

>  <ref_pdb>  (343) 
x0540b

>  <energy_score>  (343) 
-24.12055

>  <distance_score>  (343) 
0.298579

>  <HIPPO Pose ID>  (343) 
54404

>  <ref_mols>  (343) 
x0639a

>  <smiles>  (343) 
CCCc1ccccc1S(=O)(=O)NCC

>  <HIPPO Compound ID>  (343) 
449163

>  <alias>  (343) 
GWSXVYYGFIINNI-UHFFFAOYSA-N-P52

>  <subsites>  (343) 


>  <placement_batch>  (343) 
CpKRS_FrAncestor_bulkdock_iter2

>  <name>  (343) 
GWSXVYYGFIINNI-UHFFFAOYSA-N-P52

$$$$
QALIOQITGARIRJ-UHFFFAOYSA-N-P54
     RDKit          3D

 14 14  0  0  0  0  0  0  0  0999 V2000
    4.5600  -35.5229    8.6988 C   0  0  0  0  0  0  0  0  0  0  0  0
    5.5028  -35.8764    9.8404 C   0  0  0  0  0  0  0  0  0  0  0  0
    6.2280  -37.2107    9.6585 C   0  0  2  0  0  0  0  0  0  0  0  0
    6.9882  -37.6276   10.9068 C   0  0  0  0  0  0  0  0  0  0  0  0
    8.2518  -37.1201   11.2471 C   0  0  0  0  0  0  0  0  0  0  0  0
    8.9118  -37.5728   12.3896 C   0  0  0  0  0  0  0  0  0  0  0  0
    8.3083  -38.5108   13.2224 C   0  0  0  0  0  0  0  0  0  0  0  0
    7.0384  -38.9916   12.9253 C   0  0  0  0  0  0  0  0  0  0  0  0
    6.3820  -38.5529   11.7769 C   0  0  0  0  0  0  0  0  0  0  0  0
    7.2840  -37.2422    8.1898 S   0  0  0  0  0  0  0  0  0  0  0  0
    8.1010  -36.0488    8.1481 O   0  0  0  0  0  0  0  0  0  0  0  0
    6.4632  -37.6321    7.0638 O   0  0  0  0  0  0  0  0  0  0  0  0
    8.3048  -38.5684    8.4316 N   0  0  0  0  0  0  0  0  0  0  0  0
    9.5384  -38.5529    7.6295 C   0  0  0  0  0  0  0  0  0  0  0  0
  1  2  1  0
  3  2  1  1
  3  4  1  0
  4  5  2  0
  5  6  1  0
  6  7  2  0
  7  8  1  0
  8  9  2  0
  3 10  1  0
 10 11  2  0
 10 12  2  0
 10 13  1  0
 13 14  1  0
  9  4  1  0
M  END
>  <inchikey>  (344) 
QALIOQITGARIRJ-UHFFFAOYSA-N

>  <tags>  (344) 
fragmenstein_placed,CpKRS_FrAncestor_bulkdock_iter2

>  <ref_pdb>  (344) 
x0540b

>  <energy_score>  (344) 
-46.569855

>  <distance_score>  (344) 
0.69539

>  <HIPPO Pose ID>  (344) 
54409

>  <ref_mols>  (344) 
x0639c

>  <smiles>  (344) 
CCC(c1ccccc1)S(=O)(=O)NC

>  <HIPPO Compound ID>  (344) 
449164

>  <alias>  (344) 
QALIOQITGARIRJ-UHFFFAOYSA-N-P54

>  <subsites>  (344) 


>  <placement_batch>  (344) 
CpKRS_FrAncestor_bulkdock_iter2

>  <name>  (344) 
QALIOQITGARIRJ-UHFFFAOYSA-N-P54

$$$$
GJBIHUJQMLCQOP-UHFFFAOYSA-N-P54
     RDKit          3D

 14 14  0  0  0  0  0  0  0  0999 V2000
   11.5514  -36.3950    8.9739 C   0  0  0  0  0  0  0  0  0  0  0  0
   10.5248  -37.2609    9.6873 C   0  0  0  0  0  0  0  0  0  0  0  0
    9.6896  -36.4370   10.6714 C   0  0  0  0  0  0  0  0  0  0  0  0
    8.6358  -37.2776   11.3574 C   0  0  0  0  0  0  0  0  0  0  0  0
    9.0637  -38.1102   12.4099 C   0  0  0  0  0  0  0  0  0  0  0  0
    8.1709  -38.9332   13.0980 C   0  0  0  0  0  0  0  0  0  0  0  0
    6.8281  -38.9559   12.7439 C   0  0  0  0  0  0  0  0  0  0  0  0
    6.3746  -38.1436   11.7081 C   0  0  0  0  0  0  0  0  0  0  0  0
    7.2675  -37.3025   11.0189 C   0  0  0  0  0  0  0  0  0  0  0  0
    6.5583  -36.2011    9.8069 S   0  0  0  0  0  0  0  0  0  0  0  0
    7.0476  -34.8687   10.0934 O   0  0  0  0  0  0  0  0  0  0  0  0
    5.1360  -36.4539    9.7194 O   0  0  0  0  0  0  0  0  0  0  0  0
    7.2586  -36.7096    8.3779 N   0  0  0  0  0  0  0  0  0  0  0  0
    6.7390  -37.9064    7.7322 C   0  0  0  0  0  0  0  0  0  0  0  0
  1  2  1  0
  2  3  1  0
  3  4  1  0
  4  5  2  0
  5  6  1  0
  6  7  2  0
  7  8  1  0
  8  9  2  0
  9 10  1  0
 10 11  2  0
 10 12  2  0
 10 13  1  0
 13 14  1  0
  9  4  1  0
M  END
>  <inchikey>  (345) 
GJBIHUJQMLCQOP-UHFFFAOYSA-N

>  <tags>  (345) 
fragmenstein_placed,CpKRS_FrAncestor_bulkdock_iter2

>  <ref_pdb>  (345) 
x0540b

>  <energy_score>  (345) 
-43.672214

>  <distance_score>  (345) 
0.215544

>  <HIPPO Pose ID>  (345) 
54412

>  <ref_mols>  (345) 
x0639c

>  <smiles>  (345) 
CCCc1ccccc1S(=O)(=O)NC

>  <HIPPO Compound ID>  (345) 
449165

>  <alias>  (345) 
GJBIHUJQMLCQOP-UHFFFAOYSA-N-P54

>  <subsites>  (345) 


>  <placement_batch>  (345) 
CpKRS_FrAncestor_bulkdock_iter2

>  <name>  (345) 
GJBIHUJQMLCQOP-UHFFFAOYSA-N-P54

$$$$
QRCQQTSZLNSXOP-UHFFFAOYSA-N-P52
     RDKit          3D

 16 16  0  0  0  0  0  0  0  0999 V2000
   27.8955   10.4161   24.3496 C   0  0  0  0  0  0  0  0  0  0  0  0
   27.0115    9.2203   23.9851 C   0  0  0  0  0  0  0  0  0  0  0  0
   27.4085    8.6490   22.6219 C   0  0  0  0  0  0  0  0  0  0  0  0
   25.5327    9.5589   24.0181 C   0  0  0  0  0  0  0  0  0  0  0  0
   25.0080   10.6296   23.2955 C   0  0  0  0  0  0  0  0  0  0  0  0
   23.6400   10.9054   23.3277 C   0  0  0  0  0  0  0  0  0  0  0  0
   22.7401   10.1370   24.0854 C   0  0  0  0  0  0  0  0  0  0  0  0
   21.2589   10.4725   24.0800 C   0  0  0  0  0  0  0  0  0  0  0  0
   20.9614   11.8792   24.5960 C   0  0  0  0  0  0  0  0  0  0  0  0
   20.6980   10.2254   22.6913 C   0  0  0  0  0  0  0  0  0  0  0  0
   23.2658    9.0423   24.7846 C   0  0  0  0  0  0  0  0  0  0  0  0
   22.1817    7.9685   25.6867 S   0  0  0  0  0  0  0  0  0  0  0  0
   23.1864    6.7376   26.2178 N   0  0  0  0  0  0  0  0  0  0  0  0
   21.2649    7.3351   24.7717 O   0  0  0  0  0  0  0  0  0  0  0  0
   21.7366    8.6661   26.8736 O   0  0  0  0  0  0  0  0  0  0  0  0
   24.6450    8.7624   24.7536 C   0  0  0  0  0  0  0  0  0  0  0  0
  1  2  1  0
  2  3  1  0
  2  4  1  0
  4  5  2  0
  5  6  1  0
  6  7  2  0
  7  8  1  0
  8  9  1  0
  8 10  1  0
  7 11  1  0
 11 12  1  0
 12 13  1  0
 12 14  2  0
 12 15  2  0
 11 16  2  0
 16  4  1  0
M  END
>  <inchikey>  (346) 
QRCQQTSZLNSXOP-UHFFFAOYSA-N

>  <tags>  (346) 
fragmenstein_placed,CpKRS_FrAncestor_bulkdock_iter2

>  <ref_pdb>  (346) 
x0540b

>  <energy_score>  (346) 
-45.850068

>  <distance_score>  (346) 
0.508532

>  <HIPPO Pose ID>  (346) 
54413

>  <ref_mols>  (346) 
x0639a

>  <smiles>  (346) 
CC(C)c1ccc(C(C)C)c(S(N)(=O)=O)c1

>  <HIPPO Compound ID>  (346) 
449166

>  <alias>  (346) 
QRCQQTSZLNSXOP-UHFFFAOYSA-N-P52

>  <subsites>  (346) 


>  <placement_batch>  (346) 
CpKRS_FrAncestor_bulkdock_iter2

>  <name>  (346) 
QRCQQTSZLNSXOP-UHFFFAOYSA-N-P52

$$$$
ZXPHZSOPOVFLKL-UHFFFAOYSA-N-P60
     RDKit          3D

 16 17  0  0  0  0  0  0  0  0999 V2000
   -5.2067  -25.5641   26.5208 C   0  0  0  0  0  0  0  0  0  0  0  0
   -3.7396  -25.4570   26.9423 C   0  0  0  0  0  0  0  0  0  0  0  0
   -3.4284  -26.4261   28.0852 C   0  0  0  0  0  0  0  0  0  0  0  0
   -2.8059  -25.6628   25.7670 C   0  0  0  0  0  0  0  0  0  0  0  0
   -2.0040  -24.6087   25.3154 C   0  0  0  0  0  0  0  0  0  0  0  0
   -1.1436  -24.7848   24.2319 C   0  0  0  0  0  0  0  0  0  0  0  0
   -1.0509  -26.0209   23.5981 C   0  0  0  0  0  0  0  0  0  0  0  0
   -1.8595  -27.0831   24.0127 C   0  0  0  0  0  0  0  0  0  0  0  0
   -1.8106  -28.4110   23.2915 C   0  0  0  0  0  0  0  0  0  0  0  0
   -0.7008  -29.2838   23.7070 N   0  0  0  0  0  0  0  0  0  0  0  0
   -0.8294  -29.7748   25.0919 C   0  0  0  0  0  0  0  0  0  0  0  0
   -1.6933  -31.0375   25.2123 C   0  0  0  0  0  0  0  0  0  0  0  0
   -1.2225  -32.1386   24.4243 O   0  0  0  0  0  0  0  0  0  0  0  0
   -0.2406  -31.7558   23.4505 C   0  0  0  0  0  0  0  0  0  0  0  0
   -0.6038  -30.4295   22.7662 C   0  0  0  0  0  0  0  0  0  0  0  0
   -2.7349  -26.8910   25.0941 C   0  0  0  0  0  0  0  0  0  0  0  0
  1  2  1  0
  2  3  1  0
  2  4  1  0
  4  5  2  0
  5  6  1  0
  6  7  2  0
  7  8  1  0
  8  9  1  0
  9 10  1  0
 10 11  1  0
 11 12  1  0
 12 13  1  0
 13 14  1  0
 14 15  1  0
  8 16  2  0
 16  4  1  0
 15 10  1  0
M  END
>  <inchikey>  (347) 
ZXPHZSOPOVFLKL-UHFFFAOYSA-N

>  <tags>  (347) 
fragmenstein_placed,CpKRS_FrAncestor_bulkdock_iter2

>  <ref_pdb>  (347) 
x0540b

>  <energy_score>  (347) 
-29.722081

>  <distance_score>  (347) 
0.396444

>  <HIPPO Pose ID>  (347) 
54420

>  <ref_mols>  (347) 
x0675b

>  <smiles>  (347) 
CC(C)c1cccc(CN2CCOCC2)c1

>  <HIPPO Compound ID>  (347) 
142054

>  <alias>  (347) 
ZXPHZSOPOVFLKL-UHFFFAOYSA-N-P60

>  <subsites>  (347) 


>  <placement_batch>  (347) 
CpKRS_FrAncestor_bulkdock_iter2

>  <name>  (347) 
ZXPHZSOPOVFLKL-UHFFFAOYSA-N-P60

$$$$
CZQILPNVELATBT-UHFFFAOYSA-N-P60
     RDKit          3D

 18 19  0  0  0  0  0  0  0  0999 V2000
   -3.4414  -26.3917   28.0686 C   0  0  0  0  0  0  0  0  0  0  0  0
   -3.7260  -25.4131   26.9271 C   0  0  0  0  0  0  0  0  0  0  0  0
   -5.1960  -25.4773   26.5071 C   0  0  0  0  0  0  0  0  0  0  0  0
   -2.7997  -25.6435   25.7508 C   0  0  0  0  0  0  0  0  0  0  0  0
   -1.9736  -24.6106   25.2950 C   0  0  0  0  0  0  0  0  0  0  0  0
   -1.1248  -24.8075   24.2056 C   0  0  0  0  0  0  0  0  0  0  0  0
   -1.0685  -26.0440   23.5687 C   0  0  0  0  0  0  0  0  0  0  0  0
   -1.9021  -27.0844   23.9882 C   0  0  0  0  0  0  0  0  0  0  0  0
   -1.9065  -28.4102   23.2602 C   0  0  0  0  0  0  0  0  0  0  0  0
   -0.7971  -29.3023   23.6269 N   0  0  0  0  0  0  0  0  0  0  0  0
   -0.8359  -29.7548   25.0299 C   0  0  0  0  0  0  0  0  0  0  0  0
   -1.5813  -31.0787   25.2196 C   0  0  0  0  0  0  0  0  0  0  0  0
   -0.9936  -32.1612   24.4894 O   0  0  0  0  0  0  0  0  0  0  0  0
   -0.1422  -31.7337   23.4115 C   0  0  0  0  0  0  0  0  0  0  0  0
   -0.6532  -30.4670   22.6837 C   0  0  1  0  0  0  0  0  0  0  0  0
   -1.8713  -30.8555   21.9172 C   0  0  0  0  0  0  0  0  0  0  0  0
   -2.8351  -31.1318   21.3298 N   0  0  0  0  0  0  0  0  0  0  0  0
   -2.7646  -26.8715   25.0766 C   0  0  0  0  0  0  0  0  0  0  0  0
  1  2  1  0
  2  3  1  0
  2  4  1  0
  4  5  2  0
  5  6  1  0
  6  7  2  0
  7  8  1  0
  8  9  1  0
  9 10  1  0
 10 11  1  0
 11 12  1  0
 12 13  1  0
 13 14  1  0
 14 15  1  0
 15 16  1  1
 16 17  3  0
  8 18  2  0
 18  4  1  0
 15 10  1  0
M  END
>  <inchikey>  (348) 
CZQILPNVELATBT-UHFFFAOYSA-N

>  <tags>  (348) 
fragmenstein_placed,CpKRS_FrAncestor_bulkdock_iter2

>  <ref_pdb>  (348) 
x0540b

>  <energy_score>  (348) 
-33.697702

>  <distance_score>  (348) 
0.456756

>  <HIPPO Pose ID>  (348) 
54422

>  <ref_mols>  (348) 
x0675b

>  <smiles>  (348) 
CC(C)c1cccc(CN2CCOCC2C#N)c1

>  <HIPPO Compound ID>  (348) 
449167

>  <alias>  (348) 
CZQILPNVELATBT-UHFFFAOYSA-N-P60

>  <subsites>  (348) 


>  <placement_batch>  (348) 
CpKRS_FrAncestor_bulkdock_iter2

>  <name>  (348) 
CZQILPNVELATBT-UHFFFAOYSA-N-P60

$$$$
XDWPTMCGVIMDJR-UHFFFAOYSA-N-P60
     RDKit          3D

 19 20  0  0  0  0  0  0  0  0999 V2000
   -3.3617  -26.4306   28.0626 C   0  0  0  0  0  0  0  0  0  0  0  0
   -3.6996  -25.4559   26.9319 C   0  0  0  0  0  0  0  0  0  0  0  0
   -5.1753  -25.5635   26.5418 C   0  0  0  0  0  0  0  0  0  0  0  0
   -2.7898  -25.6564   25.7368 C   0  0  0  0  0  0  0  0  0  0  0  0
   -1.9765  -24.6091   25.2922 C   0  0  0  0  0  0  0  0  0  0  0  0
   -1.1273  -24.7837   24.1999 C   0  0  0  0  0  0  0  0  0  0  0  0
   -1.0525  -26.0145   23.5540 C   0  0  0  0  0  0  0  0  0  0  0  0
   -1.8720  -27.0706   23.9624 C   0  0  0  0  0  0  0  0  0  0  0  0
   -1.8358  -28.3940   23.2347 C   0  0  0  0  0  0  0  0  0  0  0  0
   -0.7798  -29.3057   23.6894 N   0  0  0  0  0  0  0  0  0  0  0  0
   -0.6423  -30.4467   22.7602 C   0  0  0  0  0  0  0  0  0  0  0  0
   -0.1967  -31.7361   23.4644 C   0  0  0  0  0  0  0  0  0  0  0  0
   -1.1780  -32.1736   24.4129 O   0  0  0  0  0  0  0  0  0  0  0  0
   -1.6278  -31.1336   25.3132 C   0  0  1  0  0  0  0  0  0  0  0  0
   -3.1431  -31.0208   25.1068 C   0  0  0  0  0  0  0  0  0  0  0  0
   -1.3792  -31.5572   26.7157 C   0  0  0  0  0  0  0  0  0  0  0  0
   -1.2000  -31.8586   27.8238 N   0  0  0  0  0  0  0  0  0  0  0  0
   -0.8985  -29.7744   25.0834 C   0  0  0  0  0  0  0  0  0  0  0  0
   -2.7431  -26.8756   25.0469 C   0  0  0  0  0  0  0  0  0  0  0  0
  1  2  1  0
  2  3  1  0
  2  4  1  0
  4  5  2  0
  5  6  1  0
  6  7  2  0
  7  8  1  0
  8  9  1  0
  9 10  1  0
 10 11  1  0
 11 12  1  0
 12 13  1  0
 13 14  1  0
 14 15  1  1
 14 16  1  0
 16 17  3  0
 14 18  1  0
  8 19  2  0
 19  4  1  0
 18 10  1  0
M  END
>  <inchikey>  (349) 
XDWPTMCGVIMDJR-UHFFFAOYSA-N

>  <tags>  (349) 
fragmenstein_placed,CpKRS_FrAncestor_bulkdock_iter2

>  <ref_pdb>  (349) 
x0540b

>  <energy_score>  (349) 
-35.500802

>  <distance_score>  (349) 
0.423382

>  <HIPPO Pose ID>  (349) 
54424

>  <ref_mols>  (349) 
x0675b

>  <smiles>  (349) 
CC(C)c1cccc(CN2CCOC(C)(C#N)C2)c1

>  <HIPPO Compound ID>  (349) 
449168

>  <alias>  (349) 
XDWPTMCGVIMDJR-UHFFFAOYSA-N-P60

>  <subsites>  (349) 


>  <placement_batch>  (349) 
CpKRS_FrAncestor_bulkdock_iter2

>  <name>  (349) 
XDWPTMCGVIMDJR-UHFFFAOYSA-N-P60

$$$$
NVJCPZZLLTWMRN-UHFFFAOYSA-N-P23
     RDKit          3D

 15 15  0  0  0  0  0  0  0  0999 V2000
   25.5873    3.5536   27.7115 C   0  0  0  0  0  0  0  0  0  0  0  0
   24.9393    3.8550   26.3559 C   0  0  0  0  0  0  0  0  0  0  0  0
   25.7195    3.1918   25.2195 C   0  0  0  0  0  0  0  0  0  0  0  0
   24.7705    5.3416   26.0988 C   0  0  0  0  0  0  0  0  0  0  0  0
   25.8195    6.2485   26.2851 C   0  0  0  0  0  0  0  0  0  0  0  0
   25.6337    7.6032   26.0243 C   0  0  0  0  0  0  0  0  0  0  0  0
   24.3943    8.0666   25.5833 C   0  0  0  0  0  0  0  0  0  0  0  0
   23.3258    7.1862   25.3747 C   0  0  0  0  0  0  0  0  0  0  0  0
   21.9580    7.6776   24.9427 C   0  0  0  0  0  0  0  0  0  0  0  0
   22.1043    8.6883   23.9662 O   0  0  0  0  0  0  0  0  0  0  0  0
   21.3992   10.1291   24.1512 S   0  0  0  0  0  0  0  0  0  0  0  0
   22.7448   11.1097   24.2797 N   0  0  0  0  0  0  0  0  0  0  0  0
   20.7635   10.2333   25.4432 O   0  0  0  0  0  0  0  0  0  0  0  0
   20.7595   10.5109   22.9174 O   0  0  0  0  0  0  0  0  0  0  0  0
   23.5382    5.8238   25.6237 C   0  0  0  0  0  0  0  0  0  0  0  0
  1  2  1  0
  2  3  1  0
  2  4  1  0
  4  5  2  0
  5  6  1  0
  6  7  2  0
  7  8  1  0
  8  9  1  0
  9 10  1  0
 10 11  1  0
 11 12  1  0
 11 13  2  0
 11 14  2  0
  8 15  2  0
 15  4  1  0
M  END
>  <inchikey>  (350) 
NVJCPZZLLTWMRN-UHFFFAOYSA-N

>  <tags>  (350) 
fragmenstein_placed,CpKRS_FrAncestor_bulkdock_iter2

>  <ref_pdb>  (350) 
x0540b

>  <energy_score>  (350) 
-34.200491

>  <distance_score>  (350) 
0.349968

>  <HIPPO Pose ID>  (350) 
54427

>  <ref_mols>  (350) 
x0472c

>  <smiles>  (350) 
CC(C)c1cccc(COS(N)(=O)=O)c1

>  <HIPPO Compound ID>  (350) 
449169

>  <alias>  (350) 
NVJCPZZLLTWMRN-UHFFFAOYSA-N-P23

>  <subsites>  (350) 


>  <placement_batch>  (350) 
CpKRS_FrAncestor_bulkdock_iter2

>  <name>  (350) 
NVJCPZZLLTWMRN-UHFFFAOYSA-N-P23

$$$$
ZQINEUYZLUNPHE-UHFFFAOYSA-N-P21
     RDKit          3D

 14 14  0  0  0  0  0  0  0  0999 V2000
   20.7336    7.8045   25.4296 C   0  0  0  0  0  0  0  0  0  0  0  0
   21.9880    8.5587   25.0476 C   0  0  1  0  0  0  0  0  0  0  0  0
   22.9147    7.7711   24.1162 C   0  0  0  0  0  0  0  0  0  0  0  0
   23.8354    6.8698   24.9091 C   0  0  0  0  0  0  0  0  0  0  0  0
   23.6247    5.4883   24.9565 C   0  0  0  0  0  0  0  0  0  0  0  0
   24.4418    4.6682   25.7400 C   0  0  0  0  0  0  0  0  0  0  0  0
   25.4758    5.2236   26.4882 C   0  0  0  0  0  0  0  0  0  0  0  0
   25.6935    6.5931   26.4317 C   0  0  0  0  0  0  0  0  0  0  0  0
   26.6639    7.1398   27.1765 F   0  0  0  0  0  0  0  0  0  0  0  0
   24.8936    7.4168   25.6467 C   0  0  0  0  0  0  0  0  0  0  0  0
   21.6140   10.1805   24.4093 S   0  0  0  0  0  0  0  0  0  0  0  0
   23.1517   10.8468   24.5092 N   0  0  0  0  0  0  0  0  0  0  0  0
   21.2972   10.1542   23.0031 O   0  0  0  0  0  0  0  0  0  0  0  0
   20.8444   10.9290   25.3775 O   0  0  0  0  0  0  0  0  0  0  0  0
  2  1  1  6
  2  3  1  0
  3  4  1  0
  4  5  2  0
  5  6  1  0
  6  7  2  0
  7  8  1  0
  8  9  1  0
  8 10  2  0
  2 11  1  0
 11 12  1  0
 11 13  2  0
 11 14  2  0
 10  4  1  0
M  END
>  <inchikey>  (351) 
ZQINEUYZLUNPHE-UHFFFAOYSA-N

>  <tags>  (351) 
fragmenstein_placed,CpKRS_FrAncestor_bulkdock_iter2

>  <ref_pdb>  (351) 
x0540b

>  <energy_score>  (351) 
-28.088236

>  <distance_score>  (351) 
0.297285

>  <HIPPO Pose ID>  (351) 
54428

>  <ref_mols>  (351) 
x0472a

>  <smiles>  (351) 
CC(Cc1cccc(F)c1)S(N)(=O)=O

>  <HIPPO Compound ID>  (351) 
449170

>  <alias>  (351) 
ZQINEUYZLUNPHE-UHFFFAOYSA-N-P21

>  <subsites>  (351) 


>  <placement_batch>  (351) 
CpKRS_FrAncestor_bulkdock_iter2

>  <name>  (351) 
ZQINEUYZLUNPHE-UHFFFAOYSA-N-P21

$$$$
GSKMSQWSCSUEAC-UHFFFAOYSA-N-P54
     RDKit          3D

 15 15  0  0  0  0  0  0  0  0999 V2000
    3.8427  -41.1526   13.9624 C   0  0  0  0  0  0  0  0  0  0  0  0
    4.7441  -40.3207   13.1084 C   0  0  0  0  0  0  0  0  0  0  0  0
    5.8890  -39.7783   13.5525 C   0  0  0  0  0  0  0  0  0  0  0  0
    6.8066  -38.9626   12.7437 C   0  0  0  0  0  0  0  0  0  0  0  0
    8.1618  -38.9449   13.0830 C   0  0  0  0  0  0  0  0  0  0  0  0
    9.0683  -38.1401   12.3864 C   0  0  0  0  0  0  0  0  0  0  0  0
    8.6463  -37.3159   11.3333 C   0  0  0  0  0  0  0  0  0  0  0  0
    9.6656  -36.4283   10.6772 C   0  0  0  0  0  0  0  0  0  0  0  0
    7.2769  -37.3160   11.0079 C   0  0  0  0  0  0  0  0  0  0  0  0
    6.5951  -36.1663    9.8228 S   0  0  0  0  0  0  0  0  0  0  0  0
    7.2334  -34.8862   10.0477 O   0  0  0  0  0  0  0  0  0  0  0  0
    5.1533  -36.2832    9.8572 O   0  0  0  0  0  0  0  0  0  0  0  0
    7.1231  -36.7563    8.3566 N   0  0  0  0  0  0  0  0  0  0  0  0
    6.7663  -38.0987    7.9311 C   0  0  0  0  0  0  0  0  0  0  0  0
    6.3697  -38.1350   11.7055 C   0  0  0  0  0  0  0  0  0  0  0  0
  1  2  1  0
  2  3  2  3
  3  4  1  0
  4  5  2  0
  5  6  1  0
  6  7  2  0
  7  8  1  0
  7  9  1  0
  9 10  1  0
 10 11  2  0
 10 12  2  0
 10 13  1  0
 13 14  1  0
  9 15  2  0
 15  4  1  0
M  END
>  <inchikey>  (352) 
GSKMSQWSCSUEAC-UHFFFAOYSA-N

>  <tags>  (352) 
fragmenstein_placed,CpKRS_FrAncestor_bulkdock_iter2

>  <ref_pdb>  (352) 
x0540b

>  <energy_score>  (352) 
-32.336816

>  <distance_score>  (352) 
0.178541

>  <HIPPO Pose ID>  (352) 
54433

>  <ref_mols>  (352) 
x0639c

>  <smiles>  (352) 
CC=Cc1ccc(C)c(S(=O)(=O)NC)c1

>  <HIPPO Compound ID>  (352) 
325663

>  <alias>  (352) 
GSKMSQWSCSUEAC-UHFFFAOYSA-N-P54

>  <subsites>  (352) 


>  <placement_batch>  (352) 
CpKRS_FrAncestor_bulkdock_iter2

>  <name>  (352) 
GSKMSQWSCSUEAC-UHFFFAOYSA-N-P54

$$$$
SFWXCWXLRLKJDN-UHFFFAOYSA-N-P52
     RDKit          3D

 15 15  0  0  0  0  0  0  0  0999 V2000
   27.2374    7.8127   24.3703 C   0  0  0  0  0  0  0  0  0  0  0  0
   26.8353    9.0905   24.2617 C   0  0  0  0  0  0  0  0  0  0  0  0
   27.8176   10.2293   24.3030 C   0  0  0  0  0  0  0  0  0  0  0  0
   25.4046    9.4249   24.0816 C   0  0  0  0  0  0  0  0  0  0  0  0
   25.0027   10.4107   23.1800 C   0  0  0  0  0  0  0  0  0  0  0  0
   23.6521   10.7414   23.0351 C   0  0  0  0  0  0  0  0  0  0  0  0
   22.6521   10.1237   23.8026 C   0  0  0  0  0  0  0  0  0  0  0  0
   21.2392   10.5845   23.5891 C   0  0  0  0  0  0  0  0  0  0  0  0
   23.0544    9.1328   24.7112 C   0  0  0  0  0  0  0  0  0  0  0  0
   21.9047    8.2969   25.7883 S   0  0  0  0  0  0  0  0  0  0  0  0
   22.6438    7.3217   26.5617 O   0  0  0  0  0  0  0  0  0  0  0  0
   21.1021    9.3029   26.4478 O   0  0  0  0  0  0  0  0  0  0  0  0
   20.9164    7.4569   24.7408 N   0  0  0  0  0  0  0  0  0  0  0  0
   21.4986    6.4858   23.8284 C   0  0  0  0  0  0  0  0  0  0  0  0
   24.4139    8.7871   24.8380 C   0  0  0  0  0  0  0  0  0  0  0  0
  1  2  2  0
  2  3  1  0
  2  4  1  0
  4  5  2  0
  5  6  1  0
  6  7  2  0
  7  8  1  0
  7  9  1  0
  9 10  1  0
 10 11  2  0
 10 12  2  0
 10 13  1  0
 13 14  1  0
  9 15  2  0
 15  4  1  0
M  END
>  <inchikey>  (353) 
SFWXCWXLRLKJDN-UHFFFAOYSA-N

>  <tags>  (353) 
fragmenstein_placed,CpKRS_FrAncestor_bulkdock_iter2

>  <ref_pdb>  (353) 
x0540b

>  <energy_score>  (353) 
-31.514858

>  <distance_score>  (353) 
0.218598

>  <HIPPO Pose ID>  (353) 
54434

>  <ref_mols>  (353) 
x0639a

>  <smiles>  (353) 
C=C(C)c1ccc(C)c(S(=O)(=O)NC)c1

>  <HIPPO Compound ID>  (353) 
325725

>  <alias>  (353) 
SFWXCWXLRLKJDN-UHFFFAOYSA-N-P52

>  <subsites>  (353) 


>  <placement_batch>  (353) 
CpKRS_FrAncestor_bulkdock_iter2

>  <name>  (353) 
SFWXCWXLRLKJDN-UHFFFAOYSA-N-P52

$$$$
URQXBCUIXIXLRN-UHFFFAOYSA-N-P54
     RDKit          3D

 14 14  0  0  0  0  0  0  0  0999 V2000
    6.2037  -41.5257   13.0954 C   0  0  0  0  0  0  0  0  0  0  0  0
    5.5917  -40.1181   13.1060 C   0  0  0  0  0  0  0  0  0  0  0  0
    5.1149  -39.7514   14.5120 C   0  0  0  0  0  0  0  0  0  0  0  0
    6.5465  -39.0731   12.5404 C   0  0  0  0  0  0  0  0  0  0  0  0
    7.8391  -38.9601   13.0954 C   0  0  0  0  0  0  0  0  0  0  0  0
    8.7859  -38.0695   12.5804 C   0  0  0  0  0  0  0  0  0  0  0  0
    8.4616  -37.2725   11.4927 C   0  0  0  0  0  0  0  0  0  0  0  0
    9.6158  -36.1689   10.8516 Cl  0  0  0  0  0  0  0  0  0  0  0  0
    7.1901  -37.3370   10.9350 C   0  0  0  0  0  0  0  0  0  0  0  0
    6.2251  -38.2093   11.4704 C   0  0  0  0  0  0  0  0  0  0  0  0
    4.6053  -38.1197   10.7422 S   0  0  0  0  0  0  0  0  0  0  0  0
    3.5895  -37.8427   12.0531 N   0  0  0  0  0  0  0  0  0  0  0  0
    4.5079  -36.8996    9.9724 O   0  0  0  0  0  0  0  0  0  0  0  0
    4.2548  -39.4069   10.1940 O   0  0  0  0  0  0  0  0  0  0  0  0
  1  2  1  0
  2  3  1  0
  2  4  1  0
  4  5  2  0
  5  6  1  0
  6  7  2  0
  7  8  1  0
  7  9  1  0
  9 10  2  0
 10 11  1  0
 11 12  1  0
 11 13  2  0
 11 14  2  0
 10  4  1  0
M  END
>  <inchikey>  (354) 
URQXBCUIXIXLRN-UHFFFAOYSA-N

>  <tags>  (354) 
fragmenstein_placed,CpKRS_FrAncestor_bulkdock_iter2

>  <ref_pdb>  (354) 
x0540b

>  <energy_score>  (354) 
-39.261092

>  <distance_score>  (354) 
0.485249

>  <HIPPO Pose ID>  (354) 
54439

>  <ref_mols>  (354) 
x0639c

>  <smiles>  (354) 
CC(C)c1ccc(Cl)cc1S(N)(=O)=O

>  <HIPPO Compound ID>  (354) 
449171

>  <alias>  (354) 
URQXBCUIXIXLRN-UHFFFAOYSA-N-P54

>  <subsites>  (354) 


>  <placement_batch>  (354) 
CpKRS_FrAncestor_bulkdock_iter2

>  <name>  (354) 
URQXBCUIXIXLRN-UHFFFAOYSA-N-P54

$$$$
JAYROQDHVIWHLI-UHFFFAOYSA-N-P52
     RDKit          3D

 14 14  0  0  0  0  0  0  0  0999 V2000
   27.0530    7.3808   23.5893 C   0  0  0  0  0  0  0  0  0  0  0  0
   26.9063    8.8704   23.9142 C   0  0  0  0  0  0  0  0  0  0  0  0
   27.5849    9.2074   25.2407 C   0  0  0  0  0  0  0  0  0  0  0  0
   25.4547    9.3164   23.9068 C   0  0  0  0  0  0  0  0  0  0  0  0
   25.0645   10.3803   23.0884 C   0  0  0  0  0  0  0  0  0  0  0  0
   23.7265   10.7716   23.0221 C   0  0  0  0  0  0  0  0  0  0  0  0
   22.7473   10.1249   23.7798 C   0  0  0  0  0  0  0  0  0  0  0  0
   21.1214   10.6700   23.5863 Cl  0  0  0  0  0  0  0  0  0  0  0  0
   23.1268    9.0801   24.6176 C   0  0  0  0  0  0  0  0  0  0  0  0
   21.9440    8.2140   25.6013 S   0  0  0  0  0  0  0  0  0  0  0  0
   21.0212    7.4417   24.4484 N   0  0  0  0  0  0  0  0  0  0  0  0
   22.6397    7.1704   26.3233 O   0  0  0  0  0  0  0  0  0  0  0  0
   21.1123    9.1639   26.3023 O   0  0  0  0  0  0  0  0  0  0  0  0
   24.4745    8.6816   24.6847 C   0  0  0  0  0  0  0  0  0  0  0  0
  1  2  1  0
  2  3  1  0
  2  4  1  0
  4  5  2  0
  5  6  1  0
  6  7  2  0
  7  8  1  0
  7  9  1  0
  9 10  1  0
 10 11  1  0
 10 12  2  0
 10 13  2  0
  9 14  2  0
 14  4  1  0
M  END
>  <inchikey>  (355) 
JAYROQDHVIWHLI-UHFFFAOYSA-N

>  <tags>  (355) 
fragmenstein_placed,CpKRS_FrAncestor_bulkdock_iter2

>  <ref_pdb>  (355) 
x0540b

>  <energy_score>  (355) 
-30.045753

>  <distance_score>  (355) 
0.343534

>  <HIPPO Pose ID>  (355) 
54440

>  <ref_mols>  (355) 
x0639a

>  <smiles>  (355) 
CC(C)c1ccc(Cl)c(S(N)(=O)=O)c1

>  <HIPPO Compound ID>  (355) 
449172

>  <alias>  (355) 
JAYROQDHVIWHLI-UHFFFAOYSA-N-P52

>  <subsites>  (355) 


>  <placement_batch>  (355) 
CpKRS_FrAncestor_bulkdock_iter2

>  <name>  (355) 
JAYROQDHVIWHLI-UHFFFAOYSA-N-P52

$$$$
XGAQDQJIUIQTRY-UHFFFAOYSA-N-P13
     RDKit          3D

 19 20  0  0  0  0  0  0  0  0999 V2000
    6.8247   -9.0776   24.6330 C   0  0  0  0  0  0  0  0  0  0  0  0
    6.0407   -8.4126   23.5278 C   0  0  0  0  0  0  0  0  0  0  0  0
    5.4788   -7.1403   24.1592 C   0  0  0  0  0  0  0  0  0  0  0  0
    5.0025   -9.3344   22.8162 C   0  0  1  0  0  0  0  0  0  0  0  0
    4.1399   -8.5151   21.8803 C   0  0  0  0  0  0  0  0  0  0  0  0
    5.6788  -10.4135   21.9297 C   0  0  0  0  0  0  0  0  0  0  0  0
    5.0964  -11.7534   22.3493 C   0  0  0  0  0  0  0  0  0  0  0  0
    4.8209  -11.5168   23.8134 C   0  0  2  0  0  0  0  0  0  0  0  0
    4.0882  -12.5265   24.4724 N   0  0  0  0  0  0  0  0  0  0  0  0
    4.5470  -13.8586   25.0712 C   0  0  0  0  0  0  0  0  0  0  0  0
    5.5885  -14.3755   25.0513 O   0  0  0  0  0  0  0  0  0  0  0  0
    3.4124  -14.3989   25.8274 C   0  0  0  0  0  0  0  0  0  0  0  0
    3.4518  -15.4125   26.8147 C   0  0  0  0  0  0  0  0  0  0  0  0
    2.2094  -15.3740   27.3802 C   0  0  0  0  0  0  0  0  0  0  0  0
    1.7973  -16.0844   28.4367 F   0  0  0  0  0  0  0  0  0  0  0  0
    1.4910  -14.4490   26.6966 N   0  0  0  0  0  0  0  0  0  0  0  0
    0.1378  -14.0523   26.9531 C   0  0  0  0  0  0  0  0  0  0  0  0
    2.1842  -13.8353   25.7305 N   0  0  0  0  0  0  0  0  0  0  0  0
    4.1552  -10.1488   23.8164 C   0  0  0  0  0  0  0  0  0  0  0  0
  1  2  1  0
  2  3  1  0
  2  4  1  0
  4  5  1  6
  4  6  1  0
  6  7  1  0
  7  8  1  0
  8  9  1  6
  9 10  1  0
 10 11  2  0
 10 12  1  0
 12 13  1  0
 13 14  2  0
 14 15  1  0
 14 16  1  0
 16 17  1  0
 16 18  1  0
  8 19  1  0
 19  4  1  0
 18 12  2  0
M  END
>  <inchikey>  (356) 
XGAQDQJIUIQTRY-UHFFFAOYSA-N

>  <tags>  (356) 
fragmenstein_placed,CpKRS_FrAncestor_bulkdock_iter2

>  <ref_pdb>  (356) 
x0540b

>  <energy_score>  (356) 
-13.574316

>  <distance_score>  (356) 
0.807271

>  <HIPPO Pose ID>  (356) 
54445

>  <ref_mols>  (356) 
x0421c

>  <smiles>  (356) 
CC(C)C1(C)CCC(NC(=O)c2cc(F)n(C)n2)C1

>  <HIPPO Compound ID>  (356) 
449173

>  <alias>  (356) 
XGAQDQJIUIQTRY-UHFFFAOYSA-N-P13

>  <subsites>  (356) 


>  <placement_batch>  (356) 
CpKRS_FrAncestor_bulkdock_iter2

>  <name>  (356) 
XGAQDQJIUIQTRY-UHFFFAOYSA-N-P13

$$$$
OTDGPJXIJNBGPN-UHFFFAOYSA-N-P13
     RDKit          3D

 18 19  0  0  0  0  0  0  0  0999 V2000
    4.3590   -7.8674   25.3793 C   0  0  0  0  0  0  0  0  0  0  0  0
    5.2036   -7.8692   24.0996 C   0  0  0  0  0  0  0  0  0  0  0  0
    6.6360   -7.5609   24.5030 C   0  0  0  0  0  0  0  0  0  0  0  0
    5.1015   -9.1521   23.2281 C   0  0  2  0  0  0  0  0  0  0  0  0
    5.9857   -9.0055   21.9775 C   0  0  0  0  0  0  0  0  0  0  0  0
    3.6862   -9.4781   22.7628 C   0  0  0  0  0  0  0  0  0  0  0  0
    3.7718  -10.9375   22.3195 C   0  0  0  0  0  0  0  0  0  0  0  0
    4.7948  -11.5899   23.2360 C   0  0  2  0  0  0  0  0  0  0  0  0
    4.1541  -12.5018   24.1348 N   0  0  0  0  0  0  0  0  0  0  0  0
    4.7317  -13.6514   24.9656 C   0  0  0  0  0  0  0  0  0  0  0  0
    5.8074  -14.0934   24.9967 O   0  0  0  0  0  0  0  0  0  0  0  0
    3.6237  -14.1903   25.7809 C   0  0  0  0  0  0  0  0  0  0  0  0
    3.6834  -15.2113   26.7588 C   0  0  0  0  0  0  0  0  0  0  0  0
    2.4122  -15.2951   27.2737 C   0  0  0  0  0  0  0  0  0  0  0  0
    1.6776  -14.3692   26.6009 N   0  0  0  0  0  0  0  0  0  0  0  0
    0.2888  -14.0557   26.8114 C   0  0  0  0  0  0  0  0  0  0  0  0
    2.3645  -13.7047   25.6631 N   0  0  0  0  0  0  0  0  0  0  0  0
    5.4396  -10.4315   23.9990 C   0  0  0  0  0  0  0  0  0  0  0  0
  1  2  1  0
  2  3  1  0
  2  4  1  0
  4  5  1  6
  4  6  1  0
  6  7  1  0
  7  8  1  0
  8  9  1  1
  9 10  1  0
 10 11  2  0
 10 12  1  0
 12 13  1  0
 13 14  2  0
 14 15  1  0
 15 16  1  0
 15 17  1  0
  8 18  1  0
 18  4  1  0
 17 12  2  0
M  END
>  <inchikey>  (357) 
OTDGPJXIJNBGPN-UHFFFAOYSA-N

>  <tags>  (357) 
fragmenstein_placed,CpKRS_FrAncestor_bulkdock_iter2

>  <ref_pdb>  (357) 
x0540b

>  <energy_score>  (357) 
-25.195511

>  <distance_score>  (357) 
0.902669

>  <HIPPO Pose ID>  (357) 
54449

>  <ref_mols>  (357) 
x0421c

>  <smiles>  (357) 
CC(C)C1(C)CCC(NC(=O)c2ccn(C)n2)C1

>  <HIPPO Compound ID>  (357) 
449174

>  <alias>  (357) 
OTDGPJXIJNBGPN-UHFFFAOYSA-N-P13

>  <subsites>  (357) 


>  <placement_batch>  (357) 
CpKRS_FrAncestor_bulkdock_iter2

>  <name>  (357) 
OTDGPJXIJNBGPN-UHFFFAOYSA-N-P13

$$$$
FXOYPBCCMIVTFK-UHFFFAOYSA-N-P11
     RDKit          3D

 19 20  0  0  0  0  0  0  0  0999 V2000
    3.6745   -8.6935   21.8523 C   0  0  0  0  0  0  0  0  0  0  0  0
    4.7190   -8.4310   22.8957 C   0  0  0  0  0  0  0  0  0  0  0  0
    5.8272   -7.6607   22.2266 C   0  0  0  0  0  0  0  0  0  0  0  0
    5.1669   -9.7242   23.5743 C   0  0  2  0  0  0  0  0  0  0  0  0
    6.3118   -9.4050   24.5439 C   0  0  0  0  0  0  0  0  0  0  0  0
    5.5398  -10.8661   22.6243 C   0  0  0  0  0  0  0  0  0  0  0  0
    4.3023  -11.7044   22.3656 C   0  0  0  0  0  0  0  0  0  0  0  0
    3.3665  -11.4307   23.5283 C   0  0  1  0  0  0  0  0  0  0  0  0
    3.1788  -12.5508   24.3864 N   0  0  0  0  0  0  0  0  0  0  0  0
    4.2051  -13.4810   25.0535 C   0  0  0  0  0  0  0  0  0  0  0  0
    5.3647  -13.5274   24.9463 O   0  0  0  0  0  0  0  0  0  0  0  0
    3.4468  -14.3033   25.9951 C   0  0  0  0  0  0  0  0  0  0  0  0
    2.1342  -14.0378   26.2227 N   0  0  0  0  0  0  0  0  0  0  0  0
    1.8021  -14.9264   27.1646 N   0  0  0  0  0  0  0  0  0  0  0  0
    0.4724  -14.8687   27.6933 C   0  0  0  0  0  0  0  0  0  0  0  0
    2.8074  -15.7512   27.5530 C   0  0  0  0  0  0  0  0  0  0  0  0
    3.8874  -15.3480   26.8184 C   0  0  0  0  0  0  0  0  0  0  0  0
    5.1179  -15.8616   26.8941 F   0  0  0  0  0  0  0  0  0  0  0  0
    3.9898  -10.3085   24.3570 C   0  0  0  0  0  0  0  0  0  0  0  0
  1  2  1  0
  2  3  1  0
  2  4  1  0
  4  5  1  1
  4  6  1  0
  6  7  1  0
  7  8  1  0
  8  9  1  1
  9 10  1  0
 10 11  2  0
 10 12  1  0
 12 13  2  0
 13 14  1  0
 14 15  1  0
 14 16  1  0
 16 17  2  0
 17 18  1  0
  8 19  1  0
 19  4  1  0
 17 12  1  0
M  END
>  <inchikey>  (358) 
FXOYPBCCMIVTFK-UHFFFAOYSA-N

>  <tags>  (358) 
fragmenstein_placed,CpKRS_FrAncestor_bulkdock_iter2

>  <ref_pdb>  (358) 
x0540b

>  <energy_score>  (358) 
-9.391415

>  <distance_score>  (358) 
0.981953

>  <HIPPO Pose ID>  (358) 
54451

>  <ref_mols>  (358) 
x0421a

>  <smiles>  (358) 
CC(C)C1(C)CCC(NC(=O)c2nn(C)cc2F)C1

>  <HIPPO Compound ID>  (358) 
449175

>  <alias>  (358) 
FXOYPBCCMIVTFK-UHFFFAOYSA-N-P11

>  <subsites>  (358) 


>  <placement_batch>  (358) 
CpKRS_FrAncestor_bulkdock_iter2

>  <name>  (358) 
FXOYPBCCMIVTFK-UHFFFAOYSA-N-P11

$$$$
PXMUNYUPHQIFLO-UHFFFAOYSA-N-P54
     RDKit          3D

 14 14  0  0  0  0  0  0  0  0999 V2000
    5.0510  -39.7350   10.1078 C   0  0  0  0  0  0  0  0  0  0  0  0
    5.1190  -38.8694   11.3678 C   0  0  0  0  0  0  0  0  0  0  0  0
    4.2360  -37.6239   11.2055 C   0  0  0  0  0  0  0  0  0  0  0  0
    6.5646  -38.5431   11.7177 C   0  0  0  0  0  0  0  0  0  0  0  0
    7.2334  -37.5265   10.9964 C   0  0  0  0  0  0  0  0  0  0  0  0
    8.5457  -37.1538   11.3026 C   0  0  0  0  0  0  0  0  0  0  0  0
    9.3094  -35.8895   10.4219 Cl  0  0  0  0  0  0  0  0  0  0  0  0
    9.2350  -37.7847   12.3250 C   0  0  0  0  0  0  0  0  0  0  0  0
    8.6180  -38.8158   13.0252 C   0  0  0  0  0  0  0  0  0  0  0  0
    7.3014  -39.2122   12.7209 C   0  0  0  0  0  0  0  0  0  0  0  0
    6.7110  -40.6221   13.6458 S   0  0  0  0  0  0  0  0  0  0  0  0
    5.9122  -39.8630   14.9082 N   0  0  0  0  0  0  0  0  0  0  0  0
    7.8354  -41.3218   14.2240 O   0  0  0  0  0  0  0  0  0  0  0  0
    5.7109  -41.3380   12.8885 O   0  0  0  0  0  0  0  0  0  0  0  0
  1  2  1  0
  2  3  1  0
  2  4  1  0
  4  5  2  0
  5  6  1  0
  6  7  1  0
  6  8  2  0
  8  9  1  0
  9 10  2  0
 10 11  1  0
 11 12  1  0
 11 13  2  0
 11 14  2  0
 10  4  1  0
M  END
>  <inchikey>  (359) 
PXMUNYUPHQIFLO-UHFFFAOYSA-N

>  <tags>  (359) 
fragmenstein_placed,CpKRS_FrAncestor_bulkdock_iter2

>  <ref_pdb>  (359) 
x0540b

>  <energy_score>  (359) 
-43.420549

>  <distance_score>  (359) 
0.877452

>  <HIPPO Pose ID>  (359) 
54529

>  <ref_mols>  (359) 
x0639c

>  <smiles>  (359) 
CC(C)c1cc(Cl)ccc1S(N)(=O)=O

>  <HIPPO Compound ID>  (359) 
449186

>  <alias>  (359) 
PXMUNYUPHQIFLO-UHFFFAOYSA-N-P54

>  <subsites>  (359) 


>  <placement_batch>  (359) 
CpKRS_FrAncestor_bulkdock_iter2

>  <name>  (359) 
PXMUNYUPHQIFLO-UHFFFAOYSA-N-P54

$$$$
AHEFKVHSRNUHRR-UHFFFAOYSA-N-P39
     RDKit          3D

 17 17  0  0  0  0  0  0  0  0999 V2000
    5.0311   -8.2079   24.9994 C   0  0  0  0  0  0  0  0  0  0  0  0
    5.6507   -8.9683   23.8290 C   0  0  0  0  0  0  0  0  0  0  0  0
    5.4056   -8.1874   22.5309 C   0  0  0  0  0  0  0  0  0  0  0  0
    5.1681  -10.4013   23.7162 C   0  0  0  0  0  0  0  0  0  0  0  0
    5.0490  -11.2311   24.8323 C   0  0  0  0  0  0  0  0  0  0  0  0
    4.7145  -12.5766   24.6544 C   0  0  0  0  0  0  0  0  0  0  0  0
    4.5805  -13.5065   25.8325 C   0  0  0  0  0  0  0  0  0  0  0  0
    3.4603  -14.3692   25.6137 N   0  0  0  0  0  0  0  0  0  0  0  0
    3.3986  -15.8221   25.0774 C   0  0  0  0  0  0  0  0  0  0  0  0
    4.2571  -16.5645   24.8050 O   0  0  0  0  0  0  0  0  0  0  0  0
    1.8949  -16.1524   24.8306 C   0  0  0  0  0  0  0  0  0  0  0  0
    1.7759  -17.5930   24.3056 C   0  0  0  0  0  0  0  0  0  0  0  0
    1.3180  -15.2201   23.7466 C   0  0  0  0  0  0  0  0  0  0  0  0
    1.0716  -16.0387   26.1142 C   0  0  0  0  0  0  0  0  0  0  0  0
    4.5561  -13.0516   23.3482 C   0  0  0  0  0  0  0  0  0  0  0  0
    4.6710  -12.1655   22.3017 C   0  0  0  0  0  0  0  0  0  0  0  0
    4.9522  -10.8601   22.4610 N   0  0  0  0  0  0  0  0  0  0  0  0
  1  2  1  0
  2  3  1  0
  2  4  1  0
  4  5  2  0
  5  6  1  0
  6  7  1  0
  7  8  1  0
  8  9  1  0
  9 10  2  0
  9 11  1  0
 11 12  1  0
 11 13  1  0
 11 14  1  0
  6 15  2  0
 15 16  1  0
 16 17  2  0
 17  4  1  0
M  END
>  <inchikey>  (360) 
AHEFKVHSRNUHRR-UHFFFAOYSA-N

>  <tags>  (360) 
fragmenstein_placed,CpKRS_FrAncestor_bulkdock_iter2

>  <ref_pdb>  (360) 
x0540b

>  <energy_score>  (360) 
-3.279608

>  <distance_score>  (360) 
0.675237

>  <HIPPO Pose ID>  (360) 
54532

>  <ref_mols>  (360) 
x0602a

>  <smiles>  (360) 
CC(C)c1cc(CNC(=O)C(C)(C)C)ccn1

>  <HIPPO Compound ID>  (360) 
147123

>  <alias>  (360) 
AHEFKVHSRNUHRR-UHFFFAOYSA-N-P39

>  <subsites>  (360) 


>  <placement_batch>  (360) 
CpKRS_FrAncestor_bulkdock_iter2

>  <name>  (360) 
AHEFKVHSRNUHRR-UHFFFAOYSA-N-P39

$$$$
IFXSRGFPZNZIHL-UHFFFAOYSA-N-P14
     RDKit          3D

 18 19  0  0  0  0  0  0  0  0999 V2000
    3.4276  -16.5012   28.4559 C   0  0  0  0  0  0  0  0  0  0  0  0
    2.2006  -15.6568   28.0948 C   0  0  0  0  0  0  0  0  0  0  0  0
    1.5751  -15.0031   29.3202 C   0  0  0  0  0  0  0  0  0  0  0  0
    2.5838  -14.6527   27.0684 C   0  0  0  0  0  0  0  0  0  0  0  0
    3.7667  -14.5099   26.3951 C   0  0  0  0  0  0  0  0  0  0  0  0
    3.5823  -13.4300   25.5201 C   0  0  0  0  0  0  0  0  0  0  0  0
    4.6608  -12.9001   24.6853 C   0  0  0  0  0  0  0  0  0  0  0  0
    5.6899  -13.4335   24.6388 O   0  0  0  0  0  0  0  0  0  0  0  0
    4.1997  -11.5917   24.0653 N   0  0  0  0  0  0  0  0  0  0  0  0
    4.9242  -10.6080   23.3334 C   0  0  1  0  0  0  0  0  0  0  0  0
    4.7513  -10.8166   21.8432 C   0  0  0  0  0  0  0  0  0  0  0  0
    5.1819   -9.4849   21.2792 C   0  0  0  0  0  0  0  0  0  0  0  0
    4.5575   -8.4702   22.2208 C   0  0  0  0  0  0  0  0  0  0  0  0
    4.5456   -9.1323   23.6166 C   0  0  0  0  0  0  0  0  0  0  0  0
    3.1683   -8.9794   24.2787 C   0  0  0  0  0  0  0  0  0  0  0  0
    5.5987   -8.4597   24.5103 C   0  0  0  0  0  0  0  0  0  0  0  0
    2.3438  -12.8972   25.6352 N   0  0  0  0  0  0  0  0  0  0  0  0
    1.7721  -13.6708   26.5767 N   0  0  0  0  0  0  0  0  0  0  0  0
  1  2  1  0
  2  3  1  0
  2  4  1  0
  4  5  2  0
  5  6  1  0
  6  7  1  0
  7  8  2  0
  7  9  1  0
 10  9  1  1
 10 11  1  0
 11 12  1  0
 12 13  1  0
 13 14  1  0
 14 15  1  0
 14 16  1  0
  6 17  2  0
 17 18  1  0
 18  4  1  0
 14 10  1  0
M  END
>  <inchikey>  (361) 
IFXSRGFPZNZIHL-UHFFFAOYSA-N

>  <tags>  (361) 
fragmenstein_placed,CpKRS_FrAncestor_bulkdock_iter2

>  <ref_pdb>  (361) 
x0540b

>  <energy_score>  (361) 
-19.560821

>  <distance_score>  (361) 
0.560433

>  <HIPPO Pose ID>  (361) 
54544

>  <ref_mols>  (361) 
x0421d

>  <smiles>  (361) 
CC(C)c1cc(C(=O)NC2CCCC2(C)C)n[nH]1

>  <HIPPO Compound ID>  (361) 
449190

>  <alias>  (361) 
IFXSRGFPZNZIHL-UHFFFAOYSA-N-P14

>  <subsites>  (361) 


>  <placement_batch>  (361) 
CpKRS_FrAncestor_bulkdock_iter2

>  <name>  (361) 
IFXSRGFPZNZIHL-UHFFFAOYSA-N-P14

$$$$
YAUMYNHBIMHUND-UHFFFAOYSA-N-P13
     RDKit          3D

 17 18  0  0  0  0  0  0  0  0999 V2000
    2.8115  -16.6405   28.2048 C   0  0  0  0  0  0  0  0  0  0  0  0
    2.2038  -15.2449   28.2857 C   0  0  0  0  0  0  0  0  0  0  0  0
    0.7950  -15.2414   28.8413 C   0  0  0  0  0  0  0  0  0  0  0  0
    2.4305  -14.5379   26.9812 C   0  0  0  0  0  0  0  0  0  0  0  0
    3.6356  -14.4834   26.3071 C   0  0  0  0  0  0  0  0  0  0  0  0
    3.4807  -13.5172   25.3029 C   0  0  0  0  0  0  0  0  0  0  0  0
    4.5802  -12.9782   24.4976 C   0  0  0  0  0  0  0  0  0  0  0  0
    5.5157  -13.6230   24.2522 O   0  0  0  0  0  0  0  0  0  0  0  0
    4.2810  -11.5096   24.1949 N   0  0  0  0  0  0  0  0  0  0  0  0
    5.0977  -10.5011   23.6144 C   0  0  0  0  0  0  0  0  0  0  0  0
    4.6865   -9.0804   23.9517 C   0  0  0  0  0  0  0  0  0  0  0  0
    5.5075   -8.2834   22.9524 C   0  0  0  0  0  0  0  0  0  0  0  0
    5.5223   -9.1378   21.6865 C   0  0  0  0  0  0  0  0  0  0  0  0
    5.0775  -10.5358   22.0976 C   0  0  0  0  0  0  0  0  0  0  0  0
    2.2205  -13.0472   25.2746 N   0  0  0  0  0  0  0  0  0  0  0  0
    1.5822  -13.7753   26.2163 N   0  0  0  0  0  0  0  0  0  0  0  0
    0.1456  -13.6705   26.2612 C   0  0  0  0  0  0  0  0  0  0  0  0
  1  2  1  0
  2  3  1  0
  2  4  1  0
  4  5  2  0
  5  6  1  0
  6  7  1  0
  7  8  2  0
  7  9  1  0
  9 10  1  0
 10 11  1  0
 11 12  1  0
 12 13  1  0
 13 14  1  0
  6 15  2  0
 15 16  1  0
 16 17  1  0
 16  4  1  0
 14 10  1  0
M  END
>  <inchikey>  (362) 
YAUMYNHBIMHUND-UHFFFAOYSA-N

>  <tags>  (362) 
fragmenstein_placed,CpKRS_FrAncestor_bulkdock_iter2

>  <ref_pdb>  (362) 
x0540b

>  <energy_score>  (362) 
-3.441239

>  <distance_score>  (362) 
0.409402

>  <HIPPO Pose ID>  (362) 
54555

>  <ref_mols>  (362) 
x0421c

>  <smiles>  (362) 
CC(C)c1cc(C(=O)NC2CCCC2)nn1C

>  <HIPPO Compound ID>  (362) 
449193

>  <alias>  (362) 
YAUMYNHBIMHUND-UHFFFAOYSA-N-P13

>  <subsites>  (362) 


>  <placement_batch>  (362) 
CpKRS_FrAncestor_bulkdock_iter2

>  <name>  (362) 
YAUMYNHBIMHUND-UHFFFAOYSA-N-P13

$$$$
NKQMKZZZYCKQRF-UHFFFAOYSA-N-P13
     RDKit          3D

 16 17  0  0  0  0  0  0  0  0999 V2000
    1.0504  -15.4342   28.8700 C   0  0  0  0  0  0  0  0  0  0  0  0
    2.2773  -15.8741   28.0695 C   0  0  0  0  0  0  0  0  0  0  0  0
    3.4386  -16.1448   29.0224 C   0  0  0  0  0  0  0  0  0  0  0  0
    2.6330  -14.9086   26.9845 C   0  0  0  0  0  0  0  0  0  0  0  0
    3.6756  -14.9250   26.0852 C   0  0  0  0  0  0  0  0  0  0  0  0
    3.5758  -13.7122   25.3641 C   0  0  0  0  0  0  0  0  0  0  0  0
    4.5892  -13.1629   24.4462 C   0  0  0  0  0  0  0  0  0  0  0  0
    5.4480  -13.8278   24.0283 O   0  0  0  0  0  0  0  0  0  0  0  0
    4.3287  -11.6591   24.2885 N   0  0  0  0  0  0  0  0  0  0  0  0
    5.1130  -10.6435   23.6678 C   0  0  0  0  0  0  0  0  0  0  0  0
    4.6608   -9.2235   23.9634 C   0  0  0  0  0  0  0  0  0  0  0  0
    5.4492   -8.4258   22.9371 C   0  0  0  0  0  0  0  0  0  0  0  0
    5.5054   -9.3191   21.6993 C   0  0  0  0  0  0  0  0  0  0  0  0
    5.0817  -10.7136   22.1501 C   0  0  0  0  0  0  0  0  0  0  0  0
    2.4570  -13.0363   25.7023 N   0  0  0  0  0  0  0  0  0  0  0  0
    1.9245  -13.7805   26.6800 N   0  0  0  0  0  0  0  0  0  0  0  0
  1  2  1  0
  2  3  1  0
  2  4  1  0
  4  5  2  0
  5  6  1  0
  6  7  1  0
  7  8  2  0
  7  9  1  0
  9 10  1  0
 10 11  1  0
 11 12  1  0
 12 13  1  0
 13 14  1  0
  6 15  2  0
 15 16  1  0
 16  4  1  0
 14 10  1  0
M  END
>  <inchikey>  (363) 
NKQMKZZZYCKQRF-UHFFFAOYSA-N

>  <tags>  (363) 
fragmenstein_placed,CpKRS_FrAncestor_bulkdock_iter2

>  <ref_pdb>  (363) 
x0540b

>  <energy_score>  (363) 
-12.8916

>  <distance_score>  (363) 
0.545916

>  <HIPPO Pose ID>  (363) 
54559

>  <ref_mols>  (363) 
x0421c

>  <smiles>  (363) 
CC(C)c1cc(C(=O)NC2CCCC2)n[nH]1

>  <HIPPO Compound ID>  (363) 
136246

>  <alias>  (363) 
NKQMKZZZYCKQRF-UHFFFAOYSA-N-P13

>  <subsites>  (363) 


>  <placement_batch>  (363) 
CpKRS_FrAncestor_bulkdock_iter2

>  <name>  (363) 
NKQMKZZZYCKQRF-UHFFFAOYSA-N-P13

$$$$
BPRAWXNYNRBKNZ-UHFFFAOYSA-N-P11
     RDKit          3D

 19 20  0  0  0  0  0  0  0  0999 V2000
    1.1366  -15.4312   28.9133 C   0  0  0  0  0  0  0  0  0  0  0  0
    1.8971  -15.9183   27.6882 C   0  0  0  0  0  0  0  0  0  0  0  0
    1.1011  -16.8229   26.7690 C   0  0  0  0  0  0  0  0  0  0  0  0
    2.4559  -14.8169   26.8715 C   0  0  0  0  0  0  0  0  0  0  0  0
    3.7540  -14.6888   26.4410 C   0  0  0  0  0  0  0  0  0  0  0  0
    3.7628  -13.5517   25.6198 C   0  0  0  0  0  0  0  0  0  0  0  0
    4.9465  -12.9442   25.0067 C   0  0  0  0  0  0  0  0  0  0  0  0
    5.9893  -13.4585   25.0243 O   0  0  0  0  0  0  0  0  0  0  0  0
    4.5240  -11.5774   24.4670 N   0  0  0  0  0  0  0  0  0  0  0  0
    5.3027  -10.5161   23.9215 C   0  0  2  0  0  0  0  0  0  0  0  0
    4.8468   -9.1067   24.3179 C   0  0  2  0  0  0  0  0  0  0  0  0
    3.3341   -8.9662   24.4962 C   0  0  0  0  0  0  0  0  0  0  0  0
    5.3880   -8.2705   23.1568 C   0  0  0  0  0  0  0  0  0  0  0  0
    5.0755   -9.1125   21.9299 C   0  0  0  0  0  0  0  0  0  0  0  0
    5.3889  -10.5334   22.3897 C   0  0  2  0  0  0  0  0  0  0  0  0
    4.5598  -11.5915   21.7061 C   0  0  0  0  0  0  0  0  0  0  0  0
    2.5354  -12.9947   25.5249 N   0  0  0  0  0  0  0  0  0  0  0  0
    1.7643  -13.7882   26.2857 N   0  0  0  0  0  0  0  0  0  0  0  0
    0.3716  -13.4327   26.4094 C   0  0  0  0  0  0  0  0  0  0  0  0
  1  2  1  0
  2  3  1  0
  2  4  1  0
  4  5  2  0
  5  6  1  0
  6  7  1  0
  7  8  2  0
  7  9  1  0
 10  9  1  6
 10 11  1  0
 11 12  1  6
 11 13  1  0
 13 14  1  0
 14 15  1  0
 15 16  1  6
  6 17  2  0
 17 18  1  0
 18 19  1  0
 18  4  1  0
 15 10  1  0
M  END
>  <inchikey>  (364) 
BPRAWXNYNRBKNZ-UHFFFAOYSA-N

>  <tags>  (364) 
fragmenstein_placed,CpKRS_FrAncestor_bulkdock_iter2

>  <ref_pdb>  (364) 
x0540b

>  <energy_score>  (364) 
-18.258512

>  <distance_score>  (364) 
0.799894

>  <HIPPO Pose ID>  (364) 
54561

>  <ref_mols>  (364) 
x0421a

>  <smiles>  (364) 
CC(C)c1cc(C(=O)NC2C(C)CCC2C)nn1C

>  <HIPPO Compound ID>  (364) 
449194

>  <alias>  (364) 
BPRAWXNYNRBKNZ-UHFFFAOYSA-N-P11

>  <subsites>  (364) 


>  <placement_batch>  (364) 
CpKRS_FrAncestor_bulkdock_iter2

>  <name>  (364) 
BPRAWXNYNRBKNZ-UHFFFAOYSA-N-P11

$$$$
VNBCXLCAEIDBPW-UHFFFAOYSA-N-P13
     RDKit          3D

 18 19  0  0  0  0  0  0  0  0999 V2000
    3.3780  -16.1359   28.9983 C   0  0  0  0  0  0  0  0  0  0  0  0
    2.2190  -15.8134   28.0556 C   0  0  0  0  0  0  0  0  0  0  0  0
    0.9937  -15.4180   28.8784 C   0  0  0  0  0  0  0  0  0  0  0  0
    2.5731  -14.7899   27.0254 C   0  0  0  0  0  0  0  0  0  0  0  0
    3.6961  -14.6814   26.2408 C   0  0  0  0  0  0  0  0  0  0  0  0
    3.5568  -13.4598   25.5419 C   0  0  0  0  0  0  0  0  0  0  0  0
    4.6226  -12.8256   24.7538 C   0  0  0  0  0  0  0  0  0  0  0  0
    5.5555  -13.4515   24.4463 O   0  0  0  0  0  0  0  0  0  0  0  0
    4.2994  -11.3390   24.5241 N   0  0  0  0  0  0  0  0  0  0  0  0
    5.0066  -10.3393   23.7912 C   0  0  1  0  0  0  0  0  0  0  0  0
    4.7082  -10.4447   22.3006 C   0  0  2  0  0  0  0  0  0  0  0  0
    5.1789  -11.7353   21.6807 C   0  0  0  0  0  0  0  0  0  0  0  0
    5.3752   -9.2028   21.7193 C   0  0  0  0  0  0  0  0  0  0  0  0
    5.4376   -8.2036   22.8728 C   0  0  0  0  0  0  0  0  0  0  0  0
    4.6969   -8.8656   24.0465 C   0  0  2  0  0  0  0  0  0  0  0  0
    5.1819   -8.3082   25.3695 C   0  0  0  0  0  0  0  0  0  0  0  0
    2.3432  -12.9121   25.7496 N   0  0  0  0  0  0  0  0  0  0  0  0
    1.7849  -13.7347   26.6525 N   0  0  0  0  0  0  0  0  0  0  0  0
  1  2  1  0
  2  3  1  0
  2  4  1  0
  4  5  2  0
  5  6  1  0
  6  7  1  0
  7  8  2  0
  7  9  1  0
 10  9  1  1
 10 11  1  0
 11 12  1  6
 11 13  1  0
 13 14  1  0
 14 15  1  0
 15 16  1  1
  6 17  2  0
 17 18  1  0
 18  4  1  0
 15 10  1  0
M  END
>  <inchikey>  (365) 
VNBCXLCAEIDBPW-UHFFFAOYSA-N

>  <tags>  (365) 
fragmenstein_placed,CpKRS_FrAncestor_bulkdock_iter2

>  <ref_pdb>  (365) 
x0540b

>  <energy_score>  (365) 
-18.050106

>  <distance_score>  (365) 
0.526679

>  <HIPPO Pose ID>  (365) 
54567

>  <ref_mols>  (365) 
x0421c

>  <smiles>  (365) 
CC(C)c1cc(C(=O)NC2C(C)CCC2C)n[nH]1

>  <HIPPO Compound ID>  (365) 
449195

>  <alias>  (365) 
VNBCXLCAEIDBPW-UHFFFAOYSA-N-P13

>  <subsites>  (365) 


>  <placement_batch>  (365) 
CpKRS_FrAncestor_bulkdock_iter2

>  <name>  (365) 
VNBCXLCAEIDBPW-UHFFFAOYSA-N-P13

$$$$
WJWSDRKDYMCMPR-UHFFFAOYSA-N-P13
     RDKit          3D

 19 20  0  0  0  0  0  0  0  0999 V2000
    1.0191  -15.4497   29.0410 C   0  0  0  0  0  0  0  0  0  0  0  0
    2.2087  -15.9237   28.2146 C   0  0  0  0  0  0  0  0  0  0  0  0
    3.3918  -16.1528   29.1665 C   0  0  0  0  0  0  0  0  0  0  0  0
    2.5621  -15.0263   27.0633 C   0  0  0  0  0  0  0  0  0  0  0  0
    3.7433  -15.0273   26.3478 C   0  0  0  0  0  0  0  0  0  0  0  0
    3.6925  -13.8941   25.5210 C   0  0  0  0  0  0  0  0  0  0  0  0
    4.8205  -13.3479   24.7677 C   0  0  0  0  0  0  0  0  0  0  0  0
    5.7013  -14.0232   24.4208 O   0  0  0  0  0  0  0  0  0  0  0  0
    4.6295  -11.8325   24.6609 N   0  0  0  0  0  0  0  0  0  0  0  0
    5.5136  -10.8198   24.1941 C   0  0  2  0  0  0  0  0  0  0  0  0
    5.3319   -9.4252   24.8032 C   0  0  0  0  0  0  0  0  0  0  0  0
    5.3671   -8.4924   23.6171 C   0  0  0  0  0  0  0  0  0  0  0  0
    4.7368   -9.3415   22.5171 C   0  0  0  0  0  0  0  0  0  0  0  0
    5.1131   -8.7825   21.1755 C   0  0  0  0  0  0  0  0  0  0  0  0
    3.2241   -9.4678   22.7298 C   0  0  0  0  0  0  0  0  0  0  0  0
    5.3984  -10.6967   22.6918 C   0  0  0  0  0  0  0  0  0  0  0  0
    2.4924  -13.2910   25.5923 N   0  0  0  0  0  0  0  0  0  0  0  0
    1.7895  -14.0797   26.4265 N   0  0  0  0  0  0  0  0  0  0  0  0
    0.3657  -13.8574   26.4834 C   0  0  0  0  0  0  0  0  0  0  0  0
  1  2  1  0
  2  3  1  0
  2  4  1  0
  4  5  2  0
  5  6  1  0
  6  7  1  0
  7  8  2  0
  7  9  1  0
 10  9  1  1
 10 11  1  0
 11 12  1  0
 12 13  1  0
 13 14  1  0
 13 15  1  0
 13 16  1  0
  6 17  2  0
 17 18  1  0
 18 19  1  0
 18  4  1  0
 16 10  1  0
M  END
>  <inchikey>  (366) 
WJWSDRKDYMCMPR-UHFFFAOYSA-N

>  <tags>  (366) 
fragmenstein_placed,CpKRS_FrAncestor_bulkdock_iter2

>  <ref_pdb>  (366) 
x0540b

>  <energy_score>  (366) 
-20.771534

>  <distance_score>  (366) 
0.567381

>  <HIPPO Pose ID>  (366) 
54571

>  <ref_mols>  (366) 
x0421c

>  <smiles>  (366) 
CC(C)c1cc(C(=O)NC2CCC(C)(C)C2)nn1C

>  <HIPPO Compound ID>  (366) 
449196

>  <alias>  (366) 
WJWSDRKDYMCMPR-UHFFFAOYSA-N-P13

>  <subsites>  (366) 


>  <placement_batch>  (366) 
CpKRS_FrAncestor_bulkdock_iter2

>  <name>  (366) 
WJWSDRKDYMCMPR-UHFFFAOYSA-N-P13

$$$$
MDXPJWOULQSNAN-UHFFFAOYSA-N-P13
     RDKit          3D

 18 19  0  0  0  0  0  0  0  0999 V2000
    3.0267  -16.3460   28.9337 C   0  0  0  0  0  0  0  0  0  0  0  0
    2.0938  -15.1693   28.6744 C   0  0  0  0  0  0  0  0  0  0  0  0
    0.6454  -15.3941   29.0702 C   0  0  0  0  0  0  0  0  0  0  0  0
    2.2414  -14.6490   27.2824 C   0  0  0  0  0  0  0  0  0  0  0  0
    3.1405  -14.9470   26.2823 C   0  0  0  0  0  0  0  0  0  0  0  0
    3.1390  -13.7968   25.4585 C   0  0  0  0  0  0  0  0  0  0  0  0
    4.2538  -13.4006   24.5880 C   0  0  0  0  0  0  0  0  0  0  0  0
    4.9140  -14.1888   24.0433 O   0  0  0  0  0  0  0  0  0  0  0  0
    4.3830  -11.8733   24.6595 N   0  0  0  0  0  0  0  0  0  0  0  0
    5.3988  -11.0039   24.1583 C   0  0  2  0  0  0  0  0  0  0  0  0
    5.4105   -9.5763   24.7303 C   0  0  0  0  0  0  0  0  0  0  0  0
    5.4055   -8.6614   23.5274 C   0  0  0  0  0  0  0  0  0  0  0  0
    4.6881   -9.5001   22.4758 C   0  0  0  0  0  0  0  0  0  0  0  0
    3.1809   -9.5317   22.7597 C   0  0  0  0  0  0  0  0  0  0  0  0
    5.0346   -8.9840   21.1093 C   0  0  0  0  0  0  0  0  0  0  0  0
    5.2918  -10.8841   22.6551 C   0  0  0  0  0  0  0  0  0  0  0  0
    2.1065  -12.9798   25.7539 N   0  0  0  0  0  0  0  0  0  0  0  0
    1.5594  -13.5562   26.8310 N   0  0  0  0  0  0  0  0  0  0  0  0
  1  2  1  0
  2  3  1  0
  2  4  1  0
  4  5  2  0
  5  6  1  0
  6  7  1  0
  7  8  2  0
  7  9  1  0
 10  9  1  1
 10 11  1  0
 11 12  1  0
 12 13  1  0
 13 14  1  0
 13 15  1  0
 13 16  1  0
  6 17  2  0
 17 18  1  0
 18  4  1  0
 16 10  1  0
M  END
>  <inchikey>  (367) 
MDXPJWOULQSNAN-UHFFFAOYSA-N

>  <tags>  (367) 
fragmenstein_placed,CpKRS_FrAncestor_bulkdock_iter2

>  <ref_pdb>  (367) 
x0540b

>  <energy_score>  (367) 
-17.415746

>  <distance_score>  (367) 
0.734358

>  <HIPPO Pose ID>  (367) 
54575

>  <ref_mols>  (367) 
x0421c

>  <smiles>  (367) 
CC(C)c1cc(C(=O)NC2CCC(C)(C)C2)n[nH]1

>  <HIPPO Compound ID>  (367) 
449197

>  <alias>  (367) 
MDXPJWOULQSNAN-UHFFFAOYSA-N-P13

>  <subsites>  (367) 


>  <placement_batch>  (367) 
CpKRS_FrAncestor_bulkdock_iter2

>  <name>  (367) 
MDXPJWOULQSNAN-UHFFFAOYSA-N-P13

$$$$
WWPRNKVPPHAWKY-ZDUSSCGKSA-N-P14
     RDKit          3D

 19 20  0  0  0  0  0  0  0  0999 V2000
    2.0656  -16.3189   28.2340 C   0  0  0  0  0  0  0  0  0  0  0  0
    2.3998  -14.8697   28.3271 C   0  0  0  0  0  0  0  0  0  0  0  0
    1.3691  -14.1175   29.1233 C   0  0  0  0  0  0  0  0  0  0  0  0
    2.6186  -14.3163   26.9827 C   0  0  0  0  0  0  0  0  0  0  0  0
    3.7948  -14.3683   26.2872 C   0  0  0  0  0  0  0  0  0  0  0  0
    3.6312  -13.4175   25.2730 C   0  0  0  0  0  0  0  0  0  0  0  0
    4.7384  -12.8735   24.5172 C   0  0  0  0  0  0  0  0  0  0  0  0
    5.7462  -13.4346   24.4152 O   0  0  0  0  0  0  0  0  0  0  0  0
    4.3282  -11.4924   24.0419 N   0  0  0  0  0  0  0  0  0  0  0  0
    5.0302  -10.5404   23.2605 C   0  0  1  0  0  0  0  0  0  0  0  0
    4.7644  -10.7522   21.7883 C   0  0  0  0  0  0  0  0  0  0  0  0
    5.1913   -9.4299   21.2037 C   0  0  0  0  0  0  0  0  0  0  0  0
    4.6431   -8.3981   22.1729 C   0  0  0  0  0  0  0  0  0  0  0  0
    4.6763   -9.0628   23.5642 C   0  0  0  0  0  0  0  0  0  0  0  0
    3.3233   -8.8943   24.2731 C   0  0  0  0  0  0  0  0  0  0  0  0
    5.7620   -8.4113   24.4318 C   0  0  0  0  0  0  0  0  0  0  0  0
    2.3841  -12.8991   25.2454 N   0  0  0  0  0  0  0  0  0  0  0  0
    1.7543  -13.6069   26.1934 N   0  0  0  0  0  0  0  0  0  0  0  0
    0.3194  -13.5239   26.2416 C   0  0  0  0  0  0  0  0  0  0  0  0
  1  2  1  0
  2  3  1  0
  2  4  1  0
  4  5  2  0
  5  6  1  0
  6  7  1  0
  7  8  2  0
  7  9  1  0
 10  9  1  1
 10 11  1  0
 11 12  1  0
 12 13  1  0
 13 14  1  0
 14 15  1  0
 14 16  1  0
  6 17  2  0
 17 18  1  0
 18 19  1  0
 18  4  1  0
 14 10  1  0
M  END
>  <inchikey>  (368) 
WWPRNKVPPHAWKY-UHFFFAOYSA-N

>  <tags>  (368) 
fragmenstein_placed,CpKRS_FrAncestor_bulkdock_iter2

>  <ref_pdb>  (368) 
x0540b

>  <energy_score>  (368) 
-16.526104

>  <distance_score>  (368) 
0.60288

>  <HIPPO Pose ID>  (368) 
54588

>  <ref_mols>  (368) 
x0421d

>  <smiles>  (368) 
CC(C)c1cc(C(=O)N[C@H]2CCCC2(C)C)nn1C

>  <HIPPO Compound ID>  (368) 
449189

>  <alias>  (368) 
WWPRNKVPPHAWKY-ZDUSSCGKSA-N-P14

>  <subsites>  (368) 


>  <placement_batch>  (368) 
CpKRS_FrAncestor_bulkdock_iter2

>  <name>  (368) 
WWPRNKVPPHAWKY-ZDUSSCGKSA-N-P14

$$$$
XFMRBXAMKBXUAM-MNOVXSKESA-N-P13
     RDKit          3D

 18 19  0  0  0  0  0  0  0  0999 V2000
    2.8132  -16.6430   28.2866 C   0  0  0  0  0  0  0  0  0  0  0  0
    2.1946  -15.2498   28.3097 C   0  0  0  0  0  0  0  0  0  0  0  0
    0.7686  -15.2352   28.8166 C   0  0  0  0  0  0  0  0  0  0  0  0
    2.4666  -14.5870   26.9923 C   0  0  0  0  0  0  0  0  0  0  0  0
    3.7003  -14.5568   26.3720 C   0  0  0  0  0  0  0  0  0  0  0  0
    3.5968  -13.6175   25.3393 C   0  0  0  0  0  0  0  0  0  0  0  0
    4.7517  -13.0471   24.6378 C   0  0  0  0  0  0  0  0  0  0  0  0
    5.7815  -13.5851   24.6393 O   0  0  0  0  0  0  0  0  0  0  0  0
    4.3453  -11.6888   24.0730 N   0  0  0  0  0  0  0  0  0  0  0  0
    5.1313  -10.6618   23.4749 C   0  0  1  0  0  0  0  0  0  0  0  0
    4.8048  -10.4215   22.0144 C   0  0  0  0  0  0  0  0  0  0  0  0
    5.1686   -8.9612   21.7636 C   0  0  0  0  0  0  0  0  0  0  0  0
    5.6131   -8.3799   23.1030 C   0  0  0  0  0  0  0  0  0  0  0  0
    4.9976   -9.2964   24.1555 C   0  0  1  0  0  0  0  0  0  0  0  0
    3.5606   -8.8996   24.4858 C   0  0  0  0  0  0  0  0  0  0  0  0
    2.3325  -13.1733   25.2145 N   0  0  0  0  0  0  0  0  0  0  0  0
    1.6543  -13.8413   26.1738 N   0  0  0  0  0  0  0  0  0  0  0  0
    0.2221  -13.6772   26.1988 C   0  0  0  0  0  0  0  0  0  0  0  0
  1  2  1  0
  2  3  1  0
  2  4  1  0
  4  5  2  0
  5  6  1  0
  6  7  1  0
  7  8  2  0
  7  9  1  0
 10  9  1  1
 10 11  1  0
 11 12  1  0
 12 13  1  0
 13 14  1  0
 14 15  1  6
  6 16  2  0
 16 17  1  0
 17 18  1  0
 17  4  1  0
 14 10  1  0
M  END
>  <inchikey>  (369) 
XFMRBXAMKBXUAM-UHFFFAOYSA-N

>  <tags>  (369) 
fragmenstein_placed,CpKRS_FrAncestor_bulkdock_iter2

>  <ref_pdb>  (369) 
x0540b

>  <energy_score>  (369) 
-17.228178

>  <distance_score>  (369) 
0.423682

>  <HIPPO Pose ID>  (369) 
54603

>  <ref_mols>  (369) 
x0421c

>  <smiles>  (369) 
CC(C)c1cc(C(=O)N[C@H]2CCC[C@H]2C)nn1C

>  <HIPPO Compound ID>  (369) 
449191

>  <alias>  (369) 
XFMRBXAMKBXUAM-MNOVXSKESA-N-P13

>  <subsites>  (369) 


>  <placement_batch>  (369) 
CpKRS_FrAncestor_bulkdock_iter2

>  <name>  (369) 
XFMRBXAMKBXUAM-MNOVXSKESA-N-P13

$$$$
NYKYCBYTPQIZCY-ZJUUUORDSA-N-P13
     RDKit          3D

 17 18  0  0  0  0  0  0  0  0999 V2000
    0.7628  -15.2079   28.6118 C   0  0  0  0  0  0  0  0  0  0  0  0
    2.2417  -15.2193   28.2554 C   0  0  0  0  0  0  0  0  0  0  0  0
    2.8677  -16.6042   28.2718 C   0  0  0  0  0  0  0  0  0  0  0  0
    2.5300  -14.5547   26.9509 C   0  0  0  0  0  0  0  0  0  0  0  0
    3.5986  -14.6971   26.0923 C   0  0  0  0  0  0  0  0  0  0  0  0
    3.5005  -13.6126   25.1982 C   0  0  0  0  0  0  0  0  0  0  0  0
    4.5841  -13.1197   24.3355 C   0  0  0  0  0  0  0  0  0  0  0  0
    5.4636  -13.7961   23.9891 O   0  0  0  0  0  0  0  0  0  0  0  0
    4.3413  -11.6250   24.1269 N   0  0  0  0  0  0  0  0  0  0  0  0
    5.1667  -10.6267   23.5333 C   0  0  1  0  0  0  0  0  0  0  0  0
    4.8806  -10.4229   22.0546 C   0  0  0  0  0  0  0  0  0  0  0  0
    5.1989   -8.9563   21.7816 C   0  0  0  0  0  0  0  0  0  0  0  0
    5.6714   -8.3585   23.1020 C   0  0  0  0  0  0  0  0  0  0  0  0
    5.0482   -9.2421   24.1769 C   0  0  1  0  0  0  0  0  0  0  0  0
    3.6204   -8.8151   24.5031 C   0  0  0  0  0  0  0  0  0  0  0  0
    2.3464  -12.9338   25.3765 N   0  0  0  0  0  0  0  0  0  0  0  0
    1.7841  -13.5389   26.4283 N   0  0  0  0  0  0  0  0  0  0  0  0
  1  2  1  0
  2  3  1  0
  2  4  1  0
  4  5  2  0
  5  6  1  0
  6  7  1  0
  7  8  2  0
  7  9  1  0
 10  9  1  1
 10 11  1  0
 11 12  1  0
 12 13  1  0
 13 14  1  0
 14 15  1  6
  6 16  2  0
 16 17  1  0
 17  4  1  0
 14 10  1  0
M  END
>  <inchikey>  (370) 
NYKYCBYTPQIZCY-UHFFFAOYSA-N

>  <tags>  (370) 
fragmenstein_placed,CpKRS_FrAncestor_bulkdock_iter2

>  <ref_pdb>  (370) 
x0540b

>  <energy_score>  (370) 
-10.173

>  <distance_score>  (370) 
0.565718

>  <HIPPO Pose ID>  (370) 
54607

>  <ref_mols>  (370) 
x0421c

>  <smiles>  (370) 
CC(C)c1cc(C(=O)N[C@H]2CCC[C@H]2C)n[nH]1

>  <HIPPO Compound ID>  (370) 
449192

>  <alias>  (370) 
NYKYCBYTPQIZCY-ZJUUUORDSA-N-P13

>  <subsites>  (370) 


>  <placement_batch>  (370) 
CpKRS_FrAncestor_bulkdock_iter2

>  <name>  (370) 
NYKYCBYTPQIZCY-ZJUUUORDSA-N-P13

$$$$
ZSKWAYCLWAVCCV-WDEREUQCSA-N-P13
     RDKit          3D

 18 19  0  0  0  0  0  0  0  0999 V2000
    0.6445  -15.3510   29.0237 C   0  0  0  0  0  0  0  0  0  0  0  0
    2.0651  -15.1037   28.5566 C   0  0  0  0  0  0  0  0  0  0  0  0
    3.0201  -16.2164   28.9918 C   0  0  0  0  0  0  0  0  0  0  0  0
    2.2555  -14.7337   27.1091 C   0  0  0  0  0  0  0  0  0  0  0  0
    3.3769  -14.9362   26.3205 C   0  0  0  0  0  0  0  0  0  0  0  0
    3.3262  -13.9187   25.3451 C   0  0  0  0  0  0  0  0  0  0  0  0
    4.4844  -13.4066   24.6010 C   0  0  0  0  0  0  0  0  0  0  0  0
    5.3759  -14.0904   24.2990 O   0  0  0  0  0  0  0  0  0  0  0  0
    4.2933  -11.8937   24.4410 N   0  0  0  0  0  0  0  0  0  0  0  0
    5.1848  -10.8973   23.9678 C   0  0  2  0  0  0  0  0  0  0  0  0
    4.8571   -9.4758   24.3929 C   0  0  0  0  0  0  0  0  0  0  0  0
    5.8236   -8.6862   23.5301 C   0  0  0  0  0  0  0  0  0  0  0  0
    5.7876   -9.4214   22.1856 C   0  0  2  0  0  0  0  0  0  0  0  0
    4.8818   -8.6844   21.2410 C   0  0  0  0  0  0  0  0  0  0  0  0
    5.2528  -10.8291   22.4565 C   0  0  0  0  0  0  0  0  0  0  0  0
    2.1341  -13.2949   25.3591 N   0  0  0  0  0  0  0  0  0  0  0  0
    1.4612  -13.9152   26.3426 N   0  0  0  0  0  0  0  0  0  0  0  0
    0.0621  -13.6070   26.4781 C   0  0  0  0  0  0  0  0  0  0  0  0
  1  2  1  0
  2  3  1  0
  2  4  1  0
  4  5  2  0
  5  6  1  0
  6  7  1  0
  7  8  2  0
  7  9  1  0
 10  9  1  6
 10 11  1  0
 11 12  1  0
 12 13  1  0
 13 14  1  6
 13 15  1  0
  6 16  2  0
 16 17  1  0
 17 18  1  0
 17  4  1  0
 15 10  1  0
M  END
>  <inchikey>  (371) 
ZSKWAYCLWAVCCV-UHFFFAOYSA-N

>  <tags>  (371) 
fragmenstein_placed,CpKRS_FrAncestor_bulkdock_iter2

>  <ref_pdb>  (371) 
x0540b

>  <energy_score>  (371) 
-4.229805

>  <distance_score>  (371) 
0.412032

>  <HIPPO Pose ID>  (371) 
54611

>  <ref_mols>  (371) 
x0421c

>  <smiles>  (371) 
CC(C)c1cc(C(=O)N[C@@H]2CC[C@H](C)C2)nn1C

>  <HIPPO Compound ID>  (371) 
447745

>  <alias>  (371) 
ZSKWAYCLWAVCCV-WDEREUQCSA-N-P13

>  <subsites>  (371) 


>  <placement_batch>  (371) 
CpKRS_FrAncestor_bulkdock_iter2

>  <name>  (371) 
ZSKWAYCLWAVCCV-WDEREUQCSA-N-P13

$$$$
VLOOQOAETUTCHH-VHSXEESVSA-N-P11
     RDKit          3D

 17 18  0  0  0  0  0  0  0  0999 V2000
    3.1134  -16.2770   28.7258 C   0  0  0  0  0  0  0  0  0  0  0  0
    2.5690  -16.2374   27.3031 C   0  0  0  0  0  0  0  0  0  0  0  0
    1.0752  -16.5058   27.2739 C   0  0  0  0  0  0  0  0  0  0  0  0
    2.8540  -14.9398   26.6440 C   0  0  0  0  0  0  0  0  0  0  0  0
    4.0278  -14.4228   26.1593 C   0  0  0  0  0  0  0  0  0  0  0  0
    3.6368  -13.2967   25.4072 C   0  0  0  0  0  0  0  0  0  0  0  0
    4.4927  -12.4384   24.5905 C   0  0  0  0  0  0  0  0  0  0  0  0
    5.6524  -12.4390   24.6738 O   0  0  0  0  0  0  0  0  0  0  0  0
    3.5628  -11.6132   23.6999 N   0  0  0  0  0  0  0  0  0  0  0  0
    3.8578  -10.6887   22.6645 C   0  0  2  0  0  0  0  0  0  0  0  0
    5.1790  -10.8802   21.9385 C   0  0  0  0  0  0  0  0  0  0  0  0
    5.6191   -9.4632   21.6135 C   0  0  0  0  0  0  0  0  0  0  0  0
    5.1826   -8.6375   22.8184 C   0  0  2  0  0  0  0  0  0  0  0  0
    6.1520   -8.7019   23.9945 C   0  0  0  0  0  0  0  0  0  0  0  0
    3.8382   -9.2554   23.1862 C   0  0  0  0  0  0  0  0  0  0  0  0
    2.3050  -13.0720   25.4867 N   0  0  0  0  0  0  0  0  0  0  0  0
    1.8836  -14.0529   26.2799 N   0  0  0  0  0  0  0  0  0  0  0  0
  1  2  1  0
  2  3  1  0
  2  4  1  0
  4  5  2  0
  5  6  1  0
  6  7  1  0
  7  8  2  0
  7  9  1  0
 10  9  1  1
 10 11  1  0
 11 12  1  0
 12 13  1  0
 13 14  1  1
 13 15  1  0
  6 16  2  0
 16 17  1  0
 17  4  1  0
 15 10  1  0
M  END
>  <inchikey>  (372) 
VLOOQOAETUTCHH-UHFFFAOYSA-N

>  <tags>  (372) 
fragmenstein_placed,CpKRS_FrAncestor_bulkdock_iter2

>  <ref_pdb>  (372) 
x0540b

>  <energy_score>  (372) 
-13.16392

>  <distance_score>  (372) 
0.911078

>  <HIPPO Pose ID>  (372) 
54613

>  <ref_mols>  (372) 
x0421a

>  <smiles>  (372) 
CC(C)c1cc(C(=O)N[C@@H]2CC[C@H](C)C2)n[nH]1

>  <HIPPO Compound ID>  (372) 
447746

>  <alias>  (372) 
VLOOQOAETUTCHH-VHSXEESVSA-N-P11

>  <subsites>  (372) 


>  <placement_batch>  (372) 
CpKRS_FrAncestor_bulkdock_iter2

>  <name>  (372) 
VLOOQOAETUTCHH-VHSXEESVSA-N-P11

$$$$
SMURYUFSJAMAJG-UWVGGRQHSA-N-P13
     RDKit          3D

 18 19  0  0  0  0  0  0  0  0999 V2000
    1.0625  -15.4294   29.0300 C   0  0  0  0  0  0  0  0  0  0  0  0
    2.2299  -15.9164   28.1776 C   0  0  0  0  0  0  0  0  0  0  0  0
    3.4213  -16.1628   29.1123 C   0  0  0  0  0  0  0  0  0  0  0  0
    2.5634  -15.0121   27.0233 C   0  0  0  0  0  0  0  0  0  0  0  0
    3.7629  -14.9280   26.3420 C   0  0  0  0  0  0  0  0  0  0  0  0
    3.6313  -13.8482   25.4535 C   0  0  0  0  0  0  0  0  0  0  0  0
    4.7123  -13.2296   24.6813 C   0  0  0  0  0  0  0  0  0  0  0  0
    5.7359  -13.7586   24.5276 O   0  0  0  0  0  0  0  0  0  0  0  0
    4.2474  -11.8307   24.2727 N   0  0  0  0  0  0  0  0  0  0  0  0
    4.9625  -10.7579   23.6778 C   0  0  1  0  0  0  0  0  0  0  0  0
    5.2585  -10.9607   22.2031 C   0  0  0  0  0  0  0  0  0  0  0  0
    5.5916   -9.5549   21.7065 C   0  0  0  0  0  0  0  0  0  0  0  0
    5.0456   -8.5893   22.7626 C   0  0  2  0  0  0  0  0  0  0  0  0
    6.3363   -7.8182   23.7163 Cl  0  0  0  0  0  0  0  0  0  0  0  0
    4.2001   -9.4452   23.6894 C   0  0  0  0  0  0  0  0  0  0  0  0
    2.3827  -13.3477   25.4796 N   0  0  0  0  0  0  0  0  0  0  0  0
    1.7351  -14.1394   26.3513 N   0  0  0  0  0  0  0  0  0  0  0  0
    0.3040  -13.9766   26.4228 C   0  0  0  0  0  0  0  0  0  0  0  0
  1  2  1  0
  2  3  1  0
  2  4  1  0
  4  5  2  0
  5  6  1  0
  6  7  1  0
  7  8  2  0
  7  9  1  0
 10  9  1  6
 10 11  1  0
 11 12  1  0
 12 13  1  0
 13 14  1  1
 13 15  1  0
  6 16  2  0
 16 17  1  0
 17 18  1  0
 17  4  1  0
 15 10  1  0
M  END
>  <inchikey>  (373) 
SMURYUFSJAMAJG-UHFFFAOYSA-N

>  <tags>  (373) 
fragmenstein_placed,CpKRS_FrAncestor_bulkdock_iter2

>  <ref_pdb>  (373) 
x0540b

>  <energy_score>  (373) 
-3.676713

>  <distance_score>  (373) 
0.381402

>  <HIPPO Pose ID>  (373) 
54619

>  <ref_mols>  (373) 
x0421c

>  <smiles>  (373) 
CC(C)c1cc(C(=O)N[C@H]2CC[C@H](Cl)C2)nn1C

>  <HIPPO Compound ID>  (373) 
449200

>  <alias>  (373) 
SMURYUFSJAMAJG-UWVGGRQHSA-N-P13

>  <subsites>  (373) 


>  <placement_batch>  (373) 
CpKRS_FrAncestor_bulkdock_iter2

>  <name>  (373) 
SMURYUFSJAMAJG-UWVGGRQHSA-N-P13

$$$$
LIPXVKLYBMJXOC-UHFFFAOYSA-N-P27
     RDKit          3D

 17 17  0  0  0  0  0  0  0  0999 V2000
   19.3281   22.6425   28.5207 C   0  0  0  0  0  0  0  0  0  0  0  0
   19.1316   23.1464   27.0903 C   0  0  0  0  0  0  0  0  0  0  0  0
   19.8480   24.5132   26.9593 C   0  0  0  0  0  0  0  0  0  0  0  0
   17.6149   23.2575   26.8165 C   0  0  0  0  0  0  0  0  0  0  0  0
   16.8676   22.1197   26.4630 C   0  0  0  0  0  0  0  0  0  0  0  0
   15.5168   22.2117   26.1280 C   0  0  0  0  0  0  0  0  0  0  0  0
   14.8718   23.4449   26.1818 C   0  0  0  0  0  0  0  0  0  0  0  0
   13.1905   23.5095   25.6979 S   0  0  0  0  0  0  0  0  0  0  0  0
   12.9739   25.0010   24.9612 N   0  0  0  0  0  0  0  0  0  0  0  0
   12.3774   23.5584   26.8836 O   0  0  0  0  0  0  0  0  0  0  0  0
   12.9719   22.5692   24.6253 O   0  0  0  0  0  0  0  0  0  0  0  0
   15.5586   24.5820   26.5887 C   0  0  0  0  0  0  0  0  0  0  0  0
   16.9184   24.4816   26.9107 C   0  0  0  0  0  0  0  0  0  0  0  0
   19.8648   22.1723   26.1329 C   0  0  0  0  0  0  0  0  0  0  0  0
   21.1933   22.1313   26.4132 F   0  0  0  0  0  0  0  0  0  0  0  0
   19.4261   20.9018   26.2246 F   0  0  0  0  0  0  0  0  0  0  0  0
   19.7424   22.5752   24.8454 F   0  0  0  0  0  0  0  0  0  0  0  0
  1  2  1  0
  2  3  1  0
  2  4  1  0
  4  5  2  0
  5  6  1  0
  6  7  2  0
  7  8  1  0
  8  9  1  0
  8 10  2  0
  8 11  2  0
  7 12  1  0
 12 13  2  0
  2 14  1  0
 14 15  1  0
 14 16  1  0
 14 17  1  0
 13  4  1  0
M  END
>  <inchikey>  (374) 
LIPXVKLYBMJXOC-UHFFFAOYSA-N

>  <tags>  (374) 
fragmenstein_placed,CpKRS_FrAncestor_bulkdock_iter2

>  <ref_pdb>  (374) 
x0540b

>  <energy_score>  (374) 
-39.767707

>  <distance_score>  (374) 
0.762349

>  <HIPPO Pose ID>  (374) 
54621

>  <ref_mols>  (374) 
x0483a

>  <smiles>  (374) 
CC(C)(c1ccc(S(N)(=O)=O)cc1)C(F)(F)F

>  <HIPPO Compound ID>  (374) 
449201

>  <alias>  (374) 
LIPXVKLYBMJXOC-UHFFFAOYSA-N-P27

>  <subsites>  (374) 


>  <placement_batch>  (374) 
CpKRS_FrAncestor_bulkdock_iter2

>  <name>  (374) 
LIPXVKLYBMJXOC-UHFFFAOYSA-N-P27

$$$$
HEOGBTPXOGGBMC-UHFFFAOYSA-N-P52
     RDKit          3D

 16 16  0  0  0  0  0  0  0  0999 V2000
   27.8251   11.3351   23.0455 C   0  0  0  0  0  0  0  0  0  0  0  0
   26.4241   11.2669   22.4299 C   0  0  0  0  0  0  0  0  0  0  0  0
   26.4926   10.6988   21.0103 C   0  0  0  0  0  0  0  0  0  0  0  0
   25.4141   10.4898   23.2589 C   0  0  0  0  0  0  0  0  0  0  0  0
   25.7521    9.3941   24.0450 C   0  0  0  0  0  0  0  0  0  0  0  0
   24.7701    8.7140   24.7679 C   0  0  0  0  0  0  0  0  0  0  0  0
   23.4216    9.1145   24.7335 C   0  0  0  0  0  0  0  0  0  0  0  0
   22.2429    8.1233   25.6230 S   0  0  0  0  0  0  0  0  0  0  0  0
   23.1335    6.7880   26.1178 N   0  0  0  0  0  0  0  0  0  0  0  0
   21.8754    8.7970   26.8482 O   0  0  0  0  0  0  0  0  0  0  0  0
   21.2696    7.5737   24.7144 O   0  0  0  0  0  0  0  0  0  0  0  0
   23.0521   10.2310   23.9683 C   0  0  0  0  0  0  0  0  0  0  0  0
   21.6676   10.8302   23.8261 C   0  0  0  0  0  0  0  0  0  0  0  0
   20.8666   11.0258   25.1032 C   0  0  0  0  0  0  0  0  0  0  0  0
   20.8936   10.1431   22.7138 C   0  0  0  0  0  0  0  0  0  0  0  0
   24.0676   10.8745   23.2194 C   0  0  0  0  0  0  0  0  0  0  0  0
  1  2  1  0
  2  3  1  0
  2  4  1  0
  4  5  2  0
  5  6  1  0
  6  7  2  0
  7  8  1  0
  8  9  1  0
  8 10  2  0
  8 11  2  0
  7 12  1  0
 12 13  1  0
 13 14  1  0
 13 15  1  0
 12 16  2  0
 16  4  1  0
M  END
>  <inchikey>  (375) 
HEOGBTPXOGGBMC-UHFFFAOYSA-N

>  <tags>  (375) 
fragmenstein_placed,CpKRS_FrAncestor_bulkdock_iter2

>  <ref_pdb>  (375) 
x0540b

>  <energy_score>  (375) 
-36.817105

>  <distance_score>  (375) 
0.607388

>  <HIPPO Pose ID>  (375) 
54622

>  <ref_mols>  (375) 
x0639a

>  <smiles>  (375) 
CC(C)c1ccc(S(N)(=O)=O)c(C(C)C)c1

>  <HIPPO Compound ID>  (375) 
449202

>  <alias>  (375) 
HEOGBTPXOGGBMC-UHFFFAOYSA-N-P52

>  <subsites>  (375) 


>  <placement_batch>  (375) 
CpKRS_FrAncestor_bulkdock_iter2

>  <name>  (375) 
HEOGBTPXOGGBMC-UHFFFAOYSA-N-P52

$$$$
VBCPORUBBJUBTJ-UHFFFAOYSA-N-P33
     RDKit          3D

 16 17  0  0  0  0  0  0  0  0999 V2000
    6.0986   -7.6218   24.7726 C   0  0  0  0  0  0  0  0  0  0  0  0
    5.2396   -8.6996   24.3024 C   0  0  0  0  0  0  0  0  0  0  0  0
    4.5710   -9.5901   23.8596 C   0  0  0  0  0  0  0  0  0  0  0  0
    3.8804  -10.7240   23.2354 C   0  0  0  0  0  0  0  0  0  0  0  0
    4.7050  -11.9900   23.4737 C   0  0  0  0  0  0  0  0  0  0  0  0
    3.8055  -13.2030   23.4454 C   0  0  0  0  0  0  0  0  0  0  0  0
    2.8011  -13.1345   24.5149 N   0  0  0  0  0  0  0  0  0  0  0  0
    3.0908  -13.9310   25.6336 C   0  0  0  0  0  0  0  0  0  0  0  0
    2.1086  -14.1625   26.6121 C   0  0  0  0  0  0  0  0  0  0  0  0
    2.2879  -14.9042   27.7279 N   0  0  0  0  0  0  0  0  0  0  0  0
    3.5148  -15.4538   27.8017 C   0  0  0  0  0  0  0  0  0  0  0  0
    3.9331  -16.3968   29.3493 Br  0  0  0  0  0  0  0  0  0  0  0  0
    4.5008  -15.2646   26.8502 C   0  0  0  0  0  0  0  0  0  0  0  0
    4.3155  -14.4854   25.7695 N   0  0  0  0  0  0  0  0  0  0  0  0
    2.2857  -11.8083   24.8754 C   0  0  0  0  0  0  0  0  0  0  0  0
    2.4272  -10.8433   23.7111 C   0  0  0  0  0  0  0  0  0  0  0  0
  1  2  1  0
  2  3  3  0
  3  4  1  0
  4  5  1  0
  5  6  1  0
  6  7  1  0
  7  8  1  0
  8  9  2  0
  9 10  1  0
 10 11  2  0
 11 12  1  0
 11 13  1  0
 13 14  2  0
  7 15  1  0
 15 16  1  0
 16  4  1  0
 14  8  1  0
M  END
>  <inchikey>  (376) 
VBCPORUBBJUBTJ-UHFFFAOYSA-N

>  <tags>  (376) 
fragmenstein_placed,CpKRS_FrAncestor_bulkdock_iter2

>  <ref_pdb>  (376) 
x0540b

>  <energy_score>  (376) 
-14.704102

>  <distance_score>  (376) 
0.894314

>  <HIPPO Pose ID>  (376) 
54628

>  <ref_mols>  (376) 
x0489a

>  <smiles>  (376) 
CC#CC1CCN(c2cnc(Br)cn2)CC1

>  <HIPPO Compound ID>  (376) 
133884

>  <alias>  (376) 
VBCPORUBBJUBTJ-UHFFFAOYSA-N-P33

>  <subsites>  (376) 


>  <placement_batch>  (376) 
CpKRS_FrAncestor_bulkdock_iter2

>  <name>  (376) 
VBCPORUBBJUBTJ-UHFFFAOYSA-N-P33

$$$$
SRFCRIGNIOQHBZ-UHFFFAOYSA-N-P33
     RDKit          3D

 16 17  0  0  0  0  0  0  0  0999 V2000
    6.1340   -7.6844   24.7444 C   0  0  0  0  0  0  0  0  0  0  0  0
    5.1952   -8.7258   24.3492 C   0  0  0  0  0  0  0  0  0  0  0  0
    4.4444   -9.5786   23.9676 C   0  0  0  0  0  0  0  0  0  0  0  0
    3.6294  -10.6584   23.4011 C   0  0  0  0  0  0  0  0  0  0  0  0
    2.1902  -10.6556   23.9400 C   0  0  0  0  0  0  0  0  0  0  0  0
    1.9942  -11.6402   25.0879 C   0  0  0  0  0  0  0  0  0  0  0  0
    2.3631  -13.0028   24.6802 N   0  0  0  0  0  0  0  0  0  0  0  0
    2.7201  -13.7980   25.7831 C   0  0  0  0  0  0  0  0  0  0  0  0
    1.8257  -14.1059   26.8179 C   0  0  0  0  0  0  0  0  0  0  0  0
    2.1129  -14.9143   27.8813 N   0  0  0  0  0  0  0  0  0  0  0  0
    3.3685  -15.4186   27.8521 C   0  0  0  0  0  0  0  0  0  0  0  0
    4.2662  -15.0872   26.8540 C   0  0  0  0  0  0  0  0  0  0  0  0
    6.0438  -15.6221   26.8699 Br  0  0  0  0  0  0  0  0  0  0  0  0
    3.9651  -14.2772   25.8360 N   0  0  0  0  0  0  0  0  0  0  0  0
    3.3346  -13.1082   23.5701 C   0  0  0  0  0  0  0  0  0  0  0  0
    4.3494  -11.9875   23.6086 C   0  0  0  0  0  0  0  0  0  0  0  0
  1  2  1  0
  2  3  3  0
  3  4  1  0
  4  5  1  0
  5  6  1  0
  6  7  1  0
  7  8  1  0
  8  9  2  0
  9 10  1  0
 10 11  2  0
 11 12  1  0
 12 13  1  0
 12 14  2  0
  7 15  1  0
 15 16  1  0
 16  4  1  0
 14  8  1  0
M  END
>  <inchikey>  (377) 
SRFCRIGNIOQHBZ-UHFFFAOYSA-N

>  <tags>  (377) 
fragmenstein_placed,CpKRS_FrAncestor_bulkdock_iter2

>  <ref_pdb>  (377) 
x0540b

>  <energy_score>  (377) 
-13.215934

>  <distance_score>  (377) 
0.995225

>  <HIPPO Pose ID>  (377) 
54629

>  <ref_mols>  (377) 
x0489a

>  <smiles>  (377) 
CC#CC1CCN(c2cncc(Br)n2)CC1

>  <HIPPO Compound ID>  (377) 
133882

>  <alias>  (377) 
SRFCRIGNIOQHBZ-UHFFFAOYSA-N-P33

>  <subsites>  (377) 


>  <placement_batch>  (377) 
CpKRS_FrAncestor_bulkdock_iter2

>  <name>  (377) 
SRFCRIGNIOQHBZ-UHFFFAOYSA-N-P33

$$$$
LKLOKMSVPVVMBO-UHFFFAOYSA-N-P33
     RDKit          3D

 16 17  0  0  0  0  0  0  0  0999 V2000
    6.0916   -7.6733   24.7314 C   0  0  0  0  0  0  0  0  0  0  0  0
    5.1760   -8.7352   24.3357 C   0  0  0  0  0  0  0  0  0  0  0  0
    4.4530   -9.6123   23.9550 C   0  0  0  0  0  0  0  0  0  0  0  0
    3.6901  -10.7328   23.3942 C   0  0  0  0  0  0  0  0  0  0  0  0
    2.2496  -10.7930   23.9260 C   0  0  0  0  0  0  0  0  0  0  0  0
    2.0936  -11.7728   25.0843 C   0  0  0  0  0  0  0  0  0  0  0  0
    2.5444  -13.1169   24.7013 N   0  0  0  0  0  0  0  0  0  0  0  0
    2.9033  -13.9064   25.8081 C   0  0  0  0  0  0  0  0  0  0  0  0
    1.9882  -14.2215   26.8277 C   0  0  0  0  0  0  0  0  0  0  0  0
    2.2547  -15.0293   27.8968 N   0  0  0  0  0  0  0  0  0  0  0  0
    3.5111  -15.5320   27.8877 C   0  0  0  0  0  0  0  0  0  0  0  0
    4.4237  -15.1982   26.9040 C   0  0  0  0  0  0  0  0  0  0  0  0
    6.0470  -15.6748   26.9169 Cl  0  0  0  0  0  0  0  0  0  0  0  0
    4.1532  -14.3844   25.8786 N   0  0  0  0  0  0  0  0  0  0  0  0
    3.5176  -13.1943   23.5948 C   0  0  0  0  0  0  0  0  0  0  0  0
    4.4734  -12.0242   23.6197 C   0  0  0  0  0  0  0  0  0  0  0  0
  1  2  1  0
  2  3  3  0
  3  4  1  0
  4  5  1  0
  5  6  1  0
  6  7  1  0
  7  8  1  0
  8  9  2  0
  9 10  1  0
 10 11  2  0
 11 12  1  0
 12 13  1  0
 12 14  2  0
  7 15  1  0
 15 16  1  0
 16  4  1  0
 14  8  1  0
M  END
>  <inchikey>  (378) 
LKLOKMSVPVVMBO-UHFFFAOYSA-N

>  <tags>  (378) 
fragmenstein_placed,CpKRS_FrAncestor_bulkdock_iter2

>  <ref_pdb>  (378) 
x0540b

>  <energy_score>  (378) 
-9.743456

>  <distance_score>  (378) 
0.877984

>  <HIPPO Pose ID>  (378) 
54630

>  <ref_mols>  (378) 
x0489a

>  <smiles>  (378) 
CC#CC1CCN(c2cncc(Cl)n2)CC1

>  <HIPPO Compound ID>  (378) 
133877

>  <alias>  (378) 
LKLOKMSVPVVMBO-UHFFFAOYSA-N-P33

>  <subsites>  (378) 


>  <placement_batch>  (378) 
CpKRS_FrAncestor_bulkdock_iter2

>  <name>  (378) 
LKLOKMSVPVVMBO-UHFFFAOYSA-N-P33

$$$$
XNQYOCPBXQDYPS-UHFFFAOYSA-N-P33
     RDKit          3D

 16 17  0  0  0  0  0  0  0  0999 V2000
    6.0365   -7.6708   24.7062 C   0  0  0  0  0  0  0  0  0  0  0  0
    5.1499   -8.7433   24.2801 C   0  0  0  0  0  0  0  0  0  0  0  0
    4.4768   -9.6485   23.8754 C   0  0  0  0  0  0  0  0  0  0  0  0
    3.8110  -10.8203   23.2954 C   0  0  0  0  0  0  0  0  0  0  0  0
    4.6867  -12.0486   23.5473 C   0  0  0  0  0  0  0  0  0  0  0  0
    3.8318  -13.2930   23.5554 C   0  0  0  0  0  0  0  0  0  0  0  0
    2.8511  -13.2455   24.6475 N   0  0  0  0  0  0  0  0  0  0  0  0
    3.1870  -14.0262   25.7666 C   0  0  0  0  0  0  0  0  0  0  0  0
    2.2522  -14.2680   26.7865 C   0  0  0  0  0  0  0  0  0  0  0  0
    2.4868  -15.0096   27.8997 N   0  0  0  0  0  0  0  0  0  0  0  0
    3.7289  -15.5404   27.9433 C   0  0  0  0  0  0  0  0  0  0  0  0
    4.0885  -16.3366   29.1395 C   0  0  0  0  0  0  0  0  0  0  0  0
    4.6594  -15.3432   26.9341 C   0  0  0  0  0  0  0  0  0  0  0  0
    4.4187  -14.5716   25.8598 N   0  0  0  0  0  0  0  0  0  0  0  0
    2.2757  -11.9382   24.9803 C   0  0  0  0  0  0  0  0  0  0  0  0
    2.3702  -10.9846   23.7969 C   0  0  0  0  0  0  0  0  0  0  0  0
  1  2  1  0
  2  3  3  0
  3  4  1  0
  4  5  1  0
  5  6  1  0
  6  7  1  0
  7  8  1  0
  8  9  2  0
  9 10  1  0
 10 11  2  0
 11 12  1  0
 11 13  1  0
 13 14  2  0
  7 15  1  0
 15 16  1  0
 16  4  1  0
 14  8  1  0
M  END
>  <inchikey>  (379) 
XNQYOCPBXQDYPS-UHFFFAOYSA-N

>  <tags>  (379) 
fragmenstein_placed,CpKRS_FrAncestor_bulkdock_iter2

>  <ref_pdb>  (379) 
x0540b

>  <energy_score>  (379) 
-16.349248

>  <distance_score>  (379) 
0.768516

>  <HIPPO Pose ID>  (379) 
54631

>  <ref_mols>  (379) 
x0489a

>  <smiles>  (379) 
CC#CC1CCN(c2cnc(C)cn2)CC1

>  <HIPPO Compound ID>  (379) 
133887

>  <alias>  (379) 
XNQYOCPBXQDYPS-UHFFFAOYSA-N-P33

>  <subsites>  (379) 


>  <placement_batch>  (379) 
CpKRS_FrAncestor_bulkdock_iter2

>  <name>  (379) 
XNQYOCPBXQDYPS-UHFFFAOYSA-N-P33

$$$$
QWHIUODCZLRPIN-UHFFFAOYSA-N-P33
     RDKit          3D

 16 17  0  0  0  0  0  0  0  0999 V2000
    6.0856   -7.6672   24.7311 C   0  0  0  0  0  0  0  0  0  0  0  0
    5.1844   -8.7382   24.3265 C   0  0  0  0  0  0  0  0  0  0  0  0
    4.4713   -9.6219   23.9426 C   0  0  0  0  0  0  0  0  0  0  0  0
    3.7183  -10.7513   23.3848 C   0  0  0  0  0  0  0  0  0  0  0  0
    2.2745  -10.8142   23.9068 C   0  0  0  0  0  0  0  0  0  0  0  0
    2.1169  -11.7727   25.0824 C   0  0  0  0  0  0  0  0  0  0  0  0
    2.5936  -13.1146   24.7328 N   0  0  0  0  0  0  0  0  0  0  0  0
    2.9346  -13.8926   25.8508 C   0  0  0  0  0  0  0  0  0  0  0  0
    2.0109  -14.1852   26.8645 C   0  0  0  0  0  0  0  0  0  0  0  0
    2.2514  -15.0033   27.9286 N   0  0  0  0  0  0  0  0  0  0  0  0
    3.4854  -15.5487   27.9194 C   0  0  0  0  0  0  0  0  0  0  0  0
    4.4332  -15.2373   26.9543 C   0  0  0  0  0  0  0  0  0  0  0  0
    5.7869  -15.8288   26.9437 C   0  0  0  0  0  0  0  0  0  0  0  0
    4.1744  -14.4030   25.9328 N   0  0  0  0  0  0  0  0  0  0  0  0
    3.5610  -13.2125   23.6280 C   0  0  0  0  0  0  0  0  0  0  0  0
    4.5088  -12.0361   23.6274 C   0  0  0  0  0  0  0  0  0  0  0  0
  1  2  1  0
  2  3  3  0
  3  4  1  0
  4  5  1  0
  5  6  1  0
  6  7  1  0
  7  8  1  0
  8  9  2  0
  9 10  1  0
 10 11  2  0
 11 12  1  0
 12 13  1  0
 12 14  2  0
  7 15  1  0
 15 16  1  0
 16  4  1  0
 14  8  1  0
M  END
>  <inchikey>  (380) 
QWHIUODCZLRPIN-UHFFFAOYSA-N

>  <tags>  (380) 
fragmenstein_placed,CpKRS_FrAncestor_bulkdock_iter2

>  <ref_pdb>  (380) 
x0540b

>  <energy_score>  (380) 
-13.306206

>  <distance_score>  (380) 
0.85701

>  <HIPPO Pose ID>  (380) 
54632

>  <ref_mols>  (380) 
x0489a

>  <smiles>  (380) 
CC#CC1CCN(c2cncc(C)n2)CC1

>  <HIPPO Compound ID>  (380) 
133879

>  <alias>  (380) 
QWHIUODCZLRPIN-UHFFFAOYSA-N-P33

>  <subsites>  (380) 


>  <placement_batch>  (380) 
CpKRS_FrAncestor_bulkdock_iter2

>  <name>  (380) 
QWHIUODCZLRPIN-UHFFFAOYSA-N-P33

$$$$
JSILTSKXKQSZMH-UHFFFAOYSA-N-P33
     RDKit          3D

 16 17  0  0  0  0  0  0  0  0999 V2000
    6.0367   -7.6465   24.7378 C   0  0  0  0  0  0  0  0  0  0  0  0
    5.1779   -8.7372   24.2958 C   0  0  0  0  0  0  0  0  0  0  0  0
    4.5170   -9.6456   23.8777 C   0  0  0  0  0  0  0  0  0  0  0  0
    3.8556  -10.8134   23.2832 C   0  0  0  0  0  0  0  0  0  0  0  0
    2.4071  -10.9717   23.7624 C   0  0  0  0  0  0  0  0  0  0  0  0
    2.2921  -11.9141   24.9517 C   0  0  0  0  0  0  0  0  0  0  0  0
    2.8711  -13.2253   24.6399 N   0  0  0  0  0  0  0  0  0  0  0  0
    3.1635  -14.0143   25.7611 C   0  0  0  0  0  0  0  0  0  0  0  0
    2.1938  -14.2365   26.7572 C   0  0  0  0  0  0  0  0  0  0  0  0
    2.3743  -14.9910   27.8701 N   0  0  0  0  0  0  0  0  0  0  0  0
    3.5931  -15.5585   27.9200 C   0  0  0  0  0  0  0  0  0  0  0  0
    3.9082  -16.4223   29.3450 Cl  0  0  0  0  0  0  0  0  0  0  0  0
    4.5704  -15.3782   26.9612 C   0  0  0  0  0  0  0  0  0  0  0  0
    4.3815  -14.5908   25.8832 N   0  0  0  0  0  0  0  0  0  0  0  0
    3.8623  -13.2891   23.5593 C   0  0  0  0  0  0  0  0  0  0  0  0
    4.7208  -12.0470   23.5461 C   0  0  0  0  0  0  0  0  0  0  0  0
  1  2  1  0
  2  3  3  0
  3  4  1  0
  4  5  1  0
  5  6  1  0
  6  7  1  0
  7  8  1  0
  8  9  2  0
  9 10  1  0
 10 11  2  0
 11 12  1  0
 11 13  1  0
 13 14  2  0
  7 15  1  0
 15 16  1  0
 16  4  1  0
 14  8  1  0
M  END
>  <inchikey>  (381) 
JSILTSKXKQSZMH-UHFFFAOYSA-N

>  <tags>  (381) 
fragmenstein_placed,CpKRS_FrAncestor_bulkdock_iter2

>  <ref_pdb>  (381) 
x0540b

>  <energy_score>  (381) 
-16.438473

>  <distance_score>  (381) 
0.781799

>  <HIPPO Pose ID>  (381) 
54633

>  <ref_mols>  (381) 
x0489a

>  <smiles>  (381) 
CC#CC1CCN(c2cnc(Cl)cn2)CC1

>  <HIPPO Compound ID>  (381) 
133885

>  <alias>  (381) 
JSILTSKXKQSZMH-UHFFFAOYSA-N-P33

>  <subsites>  (381) 


>  <placement_batch>  (381) 
CpKRS_FrAncestor_bulkdock_iter2

>  <name>  (381) 
JSILTSKXKQSZMH-UHFFFAOYSA-N-P33

$$$$
OFRLPXBGOZNDJN-UHFFFAOYSA-N-P33
     RDKit          3D

 15 16  0  0  0  0  0  0  0  0999 V2000
    5.8304   -7.6167   23.7458 C   0  0  0  0  0  0  0  0  0  0  0  0
    4.9578   -8.7723   23.8698 C   0  0  0  0  0  0  0  0  0  0  0  0
    4.3085   -9.7686   24.0067 C   0  0  0  0  0  0  0  0  0  0  0  0
    3.7534  -11.0721   24.3386 C   0  0  0  0  0  0  0  0  0  0  0  0
    2.3307  -11.3406   23.8797 C   0  0  0  0  0  0  0  0  0  0  0  0
    1.8411  -12.5771   24.6553 C   0  0  0  0  0  0  0  0  0  0  0  0
    2.9055  -13.5779   24.7520 N   0  0  0  0  0  0  0  0  0  0  0  0
    3.1766  -14.2724   25.9238 C   0  0  0  0  0  0  0  0  0  0  0  0
    2.2107  -14.5080   26.9141 C   0  0  0  0  0  0  0  0  0  0  0  0
    2.4036  -15.2284   28.0590 N   0  0  0  0  0  0  0  0  0  0  0  0
    3.6419  -15.7488   28.1628 C   0  0  0  0  0  0  0  0  0  0  0  0
    4.6209  -15.5286   27.2134 C   0  0  0  0  0  0  0  0  0  0  0  0
    4.4166  -14.7810   26.1102 N   0  0  0  0  0  0  0  0  0  0  0  0
    3.9868  -13.4934   23.7708 C   0  0  0  0  0  0  0  0  0  0  0  0
    4.7195  -12.1770   23.9207 C   0  0  0  0  0  0  0  0  0  0  0  0
  1  2  1  0
  2  3  3  0
  3  4  1  0
  4  5  1  0
  5  6  1  0
  6  7  1  0
  7  8  1  0
  8  9  2  0
  9 10  1  0
 10 11  2  0
 11 12  1  0
 12 13  2  0
  7 14  1  0
 14 15  1  0
 15  4  1  0
 13  8  1  0
M  END
>  <inchikey>  (382) 
OFRLPXBGOZNDJN-UHFFFAOYSA-N

>  <tags>  (382) 
fragmenstein_placed,CpKRS_FrAncestor_bulkdock_iter2

>  <ref_pdb>  (382) 
x0540b

>  <energy_score>  (382) 
-8.200672

>  <distance_score>  (382) 
0.565071

>  <HIPPO Pose ID>  (382) 
54634

>  <ref_mols>  (382) 
x0489a

>  <smiles>  (382) 
CC#CC1CCN(c2cnccn2)CC1

>  <HIPPO Compound ID>  (382) 
311031

>  <alias>  (382) 
OFRLPXBGOZNDJN-UHFFFAOYSA-N-P33

>  <subsites>  (382) 


>  <placement_batch>  (382) 
CpKRS_FrAncestor_bulkdock_iter2

>  <name>  (382) 
OFRLPXBGOZNDJN-UHFFFAOYSA-N-P33

$$$$
CWCHNZSOGPRPSH-UHFFFAOYSA-N-P33
     RDKit          3D

 15 16  0  0  0  0  0  0  0  0999 V2000
    5.1583   -8.9876   23.7066 C   0  0  0  0  0  0  0  0  0  0  0  0
    3.9181   -9.8121   24.0757 C   0  0  0  0  0  0  0  0  0  0  0  0
    2.7098   -8.8885   24.1292 C   0  0  0  0  0  0  0  0  0  0  0  0
    3.7165  -11.0302   23.1409 C   0  0  0  0  0  0  0  0  0  0  0  0
    2.3712  -11.7527   23.3373 C   0  0  0  0  0  0  0  0  0  0  0  0
    2.2629  -12.4547   24.6914 C   0  0  0  0  0  0  0  0  0  0  0  0
    3.5066  -13.1330   25.0270 N   0  0  0  0  0  0  0  0  0  0  0  0
    3.5151  -14.0861   26.0404 C   0  0  0  0  0  0  0  0  0  0  0  0
    2.4925  -14.2292   26.9957 C   0  0  0  0  0  0  0  0  0  0  0  0
    2.4774  -15.1461   28.0089 N   0  0  0  0  0  0  0  0  0  0  0  0
    3.5642  -15.9409   28.0252 C   0  0  0  0  0  0  0  0  0  0  0  0
    4.5912  -15.8104   27.1148 C   0  0  0  0  0  0  0  0  0  0  0  0
    4.5951  -14.8868   26.1411 N   0  0  0  0  0  0  0  0  0  0  0  0
    4.4543  -13.3642   23.9371 C   0  0  0  0  0  0  0  0  0  0  0  0
    4.8706  -12.0330   23.3214 C   0  0  0  0  0  0  0  0  0  0  0  0
  1  2  1  0
  2  3  1  0
  2  4  1  0
  4  5  1  0
  5  6  1  0
  6  7  1  0
  7  8  1  0
  8  9  2  0
  9 10  1  0
 10 11  2  0
 11 12  1  0
 12 13  2  0
  7 14  1  0
 14 15  1  0
 15  4  1  0
 13  8  1  0
M  END
>  <inchikey>  (383) 
CWCHNZSOGPRPSH-UHFFFAOYSA-N

>  <tags>  (383) 
fragmenstein_placed,CpKRS_FrAncestor_bulkdock_iter2

>  <ref_pdb>  (383) 
x0540b

>  <energy_score>  (383) 
-20.017139

>  <distance_score>  (383) 
0.4476

>  <HIPPO Pose ID>  (383) 
54635

>  <ref_mols>  (383) 
x0489a

>  <smiles>  (383) 
CC(C)C1CCN(c2cnccn2)CC1

>  <HIPPO Compound ID>  (383) 
310646

>  <alias>  (383) 
CWCHNZSOGPRPSH-UHFFFAOYSA-N-P33

>  <subsites>  (383) 


>  <placement_batch>  (383) 
CpKRS_FrAncestor_bulkdock_iter2

>  <name>  (383) 
CWCHNZSOGPRPSH-UHFFFAOYSA-N-P33

$$$$
JLTKUYULYZUPHO-UHFFFAOYSA-N-P33
     RDKit          3D

 16 17  0  0  0  0  0  0  0  0999 V2000
    6.1060   -7.6624   24.7571 C   0  0  0  0  0  0  0  0  0  0  0  0
    5.3220   -8.7822   24.2557 C   0  0  0  0  0  0  0  0  0  0  0  0
    4.7106   -9.7060   23.7985 C   0  0  0  0  0  0  0  0  0  0  0  0
    4.0621  -10.8680   23.1789 C   0  0  0  0  0  0  0  0  0  0  0  0
    2.5983  -10.9725   23.5916 C   0  0  0  0  0  0  0  0  0  0  0  0
    2.4100  -11.8070   24.8491 C   0  0  0  0  0  0  0  0  0  0  0  0
    2.9686  -13.1547   24.6957 N   0  0  0  0  0  0  0  0  0  0  0  0
    3.1987  -13.9321   25.8447 C   0  0  0  0  0  0  0  0  0  0  0  0
    4.3965  -14.5732   25.9377 N   0  0  0  0  0  0  0  0  0  0  0  0
    4.5788  -15.4393   26.9575 C   0  0  0  0  0  0  0  0  0  0  0  0
    3.6253  -15.6582   27.9268 C   0  0  0  0  0  0  0  0  0  0  0  0
    2.4474  -15.0086   27.9328 N   0  0  0  0  0  0  0  0  0  0  0  0
    2.2515  -14.1585   26.8767 C   0  0  0  0  0  0  0  0  0  0  0  0
    0.5244  -13.3420   26.8998 Br  0  0  0  0  0  0  0  0  0  0  0  0
    3.9429  -13.3319   23.6085 C   0  0  0  0  0  0  0  0  0  0  0  0
    4.8576  -12.1299   23.5074 C   0  0  0  0  0  0  0  0  0  0  0  0
  1  2  1  0
  2  3  3  0
  3  4  1  0
  4  5  1  0
  5  6  1  0
  6  7  1  0
  7  8  1  0
  8  9  2  0
  9 10  1  0
 10 11  2  0
 11 12  1  0
 12 13  2  0
 13 14  1  0
  7 15  1  0
 15 16  1  0
 16  4  1  0
 13  8  1  0
M  END
>  <inchikey>  (384) 
JLTKUYULYZUPHO-UHFFFAOYSA-N

>  <tags>  (384) 
fragmenstein_placed,CpKRS_FrAncestor_bulkdock_iter2

>  <ref_pdb>  (384) 
x0540b

>  <energy_score>  (384) 
-16.870878

>  <distance_score>  (384) 
0.787064

>  <HIPPO Pose ID>  (384) 
54636

>  <ref_mols>  (384) 
x0489a

>  <smiles>  (384) 
CC#CC1CCN(c2nccnc2Br)CC1

>  <HIPPO Compound ID>  (384) 
133886

>  <alias>  (384) 
JLTKUYULYZUPHO-UHFFFAOYSA-N-P33

>  <subsites>  (384) 


>  <placement_batch>  (384) 
CpKRS_FrAncestor_bulkdock_iter2

>  <name>  (384) 
JLTKUYULYZUPHO-UHFFFAOYSA-N-P33

$$$$
HKRXGQLAFMKDGO-UHFFFAOYSA-N-P33
     RDKit          3D

 16 17  0  0  0  0  0  0  0  0999 V2000
    6.0213   -7.6885   24.7254 C   0  0  0  0  0  0  0  0  0  0  0  0
    5.1979   -8.8022   24.2738 C   0  0  0  0  0  0  0  0  0  0  0  0
    4.5678   -9.7326   23.8561 C   0  0  0  0  0  0  0  0  0  0  0  0
    3.9369  -10.9242   23.2736 C   0  0  0  0  0  0  0  0  0  0  0  0
    2.4898  -11.0974   23.7349 C   0  0  0  0  0  0  0  0  0  0  0  0
    2.3693  -11.9641   24.9839 C   0  0  0  0  0  0  0  0  0  0  0  0
    3.0165  -13.2665   24.8158 N   0  0  0  0  0  0  0  0  0  0  0  0
    3.3191  -14.0516   25.9388 C   0  0  0  0  0  0  0  0  0  0  0  0
    4.5201  -14.6823   25.9627 N   0  0  0  0  0  0  0  0  0  0  0  0
    4.7626  -15.5539   26.9631 C   0  0  0  0  0  0  0  0  0  0  0  0
    3.8639  -15.7967   27.9753 C   0  0  0  0  0  0  0  0  0  0  0  0
    2.6874  -15.1557   28.0469 N   0  0  0  0  0  0  0  0  0  0  0  0
    2.4300  -14.2875   27.0160 C   0  0  0  0  0  0  0  0  0  0  0  0
    1.1074  -13.6138   27.1401 C   0  0  0  0  0  0  0  0  0  0  0  0
    3.9533  -13.3877   23.6894 C   0  0  0  0  0  0  0  0  0  0  0  0
    4.8066  -12.1445   23.5726 C   0  0  0  0  0  0  0  0  0  0  0  0
  1  2  1  0
  2  3  3  0
  3  4  1  0
  4  5  1  0
  5  6  1  0
  6  7  1  0
  7  8  1  0
  8  9  2  0
  9 10  1  0
 10 11  2  0
 11 12  1  0
 12 13  2  0
 13 14  1  0
  7 15  1  0
 15 16  1  0
 16  4  1  0
 13  8  1  0
M  END
>  <inchikey>  (385) 
HKRXGQLAFMKDGO-UHFFFAOYSA-N

>  <tags>  (385) 
fragmenstein_placed,CpKRS_FrAncestor_bulkdock_iter2

>  <ref_pdb>  (385) 
x0540b

>  <energy_score>  (385) 
-19.849834

>  <distance_score>  (385) 
0.683931

>  <HIPPO Pose ID>  (385) 
54637

>  <ref_mols>  (385) 
x0489a

>  <smiles>  (385) 
CC#CC1CCN(c2nccnc2C)CC1

>  <HIPPO Compound ID>  (385) 
133880

>  <alias>  (385) 
HKRXGQLAFMKDGO-UHFFFAOYSA-N-P33

>  <subsites>  (385) 


>  <placement_batch>  (385) 
CpKRS_FrAncestor_bulkdock_iter2

>  <name>  (385) 
HKRXGQLAFMKDGO-UHFFFAOYSA-N-P33

$$$$
KCAAIICUUJNTEY-UHFFFAOYSA-N-P33
     RDKit          3D

 16 17  0  0  0  0  0  0  0  0999 V2000
    6.0509   -7.6641   24.7247 C   0  0  0  0  0  0  0  0  0  0  0  0
    5.2280   -8.7791   24.2749 C   0  0  0  0  0  0  0  0  0  0  0  0
    4.5971   -9.7067   23.8523 C   0  0  0  0  0  0  0  0  0  0  0  0
    3.9602  -10.8881   23.2576 C   0  0  0  0  0  0  0  0  0  0  0  0
    4.8046  -12.1222   23.5709 C   0  0  0  0  0  0  0  0  0  0  0  0
    3.9312  -13.3521   23.6730 C   0  0  0  0  0  0  0  0  0  0  0  0
    2.9712  -13.2096   24.7743 N   0  0  0  0  0  0  0  0  0  0  0  0
    3.2157  -13.9978   25.9094 C   0  0  0  0  0  0  0  0  0  0  0  0
    4.4048  -14.6561   25.9745 N   0  0  0  0  0  0  0  0  0  0  0  0
    4.5961  -15.5216   26.9937 C   0  0  0  0  0  0  0  0  0  0  0  0
    3.6597  -15.7260   27.9851 C   0  0  0  0  0  0  0  0  0  0  0  0
    2.4902  -15.0617   28.0173 N   0  0  0  0  0  0  0  0  0  0  0  0
    2.2959  -14.2122   26.9656 C   0  0  0  0  0  0  0  0  0  0  0  0
    0.7482  -13.4526   27.0844 Cl  0  0  0  0  0  0  0  0  0  0  0  0
    2.3344  -11.8999   24.9323 C   0  0  0  0  0  0  0  0  0  0  0  0
    2.5021  -11.0345   23.6896 C   0  0  0  0  0  0  0  0  0  0  0  0
  1  2  1  0
  2  3  3  0
  3  4  1  0
  4  5  1  0
  5  6  1  0
  6  7  1  0
  7  8  1  0
  8  9  2  0
  9 10  1  0
 10 11  2  0
 11 12  1  0
 12 13  2  0
 13 14  1  0
  7 15  1  0
 15 16  1  0
 16  4  1  0
 13  8  1  0
M  END
>  <inchikey>  (386) 
KCAAIICUUJNTEY-UHFFFAOYSA-N

>  <tags>  (386) 
fragmenstein_placed,CpKRS_FrAncestor_bulkdock_iter2

>  <ref_pdb>  (386) 
x0540b

>  <energy_score>  (386) 
-23.139262

>  <distance_score>  (386) 
0.72165

>  <HIPPO Pose ID>  (386) 
54641

>  <ref_mols>  (386) 
x0489a

>  <smiles>  (386) 
CC#CC1CCN(c2nccnc2Cl)CC1

>  <HIPPO Compound ID>  (386) 
133878

>  <alias>  (386) 
KCAAIICUUJNTEY-UHFFFAOYSA-N-P33

>  <subsites>  (386) 


>  <placement_batch>  (386) 
CpKRS_FrAncestor_bulkdock_iter2

>  <name>  (386) 
KCAAIICUUJNTEY-UHFFFAOYSA-N-P33

$$$$
SMHFRIXEYZDGHL-UHFFFAOYSA-N-P33
     RDKit          3D

 16 17  0  0  0  0  0  0  0  0999 V2000
    5.9538   -7.6898   24.6991 C   0  0  0  0  0  0  0  0  0  0  0  0
    5.0859   -8.7928   24.3075 C   0  0  0  0  0  0  0  0  0  0  0  0
    4.4262   -9.7236   23.9382 C   0  0  0  0  0  0  0  0  0  0  0  0
    3.7912  -10.9361   23.4040 C   0  0  0  0  0  0  0  0  0  0  0  0
    4.7069  -12.1258   23.6924 C   0  0  0  0  0  0  0  0  0  0  0  0
    3.8993  -13.3983   23.7642 C   0  0  0  0  0  0  0  0  0  0  0  0
    2.9379  -13.3362   24.8664 N   0  0  0  0  0  0  0  0  0  0  0  0
    3.2212  -14.1364   25.9848 C   0  0  0  0  0  0  0  0  0  0  0  0
    4.4368  -14.7367   26.0637 N   0  0  0  0  0  0  0  0  0  0  0  0
    4.6437  -15.5743   27.0999 C   0  0  0  0  0  0  0  0  0  0  0  0
    3.6977  -15.8035   28.0818 C   0  0  0  0  0  0  0  0  0  0  0  0
    2.4928  -15.2011   28.0883 N   0  0  0  0  0  0  0  0  0  0  0  0
    2.2818  -14.3814   27.0180 C   0  0  0  0  0  0  0  0  0  0  0  0
    1.0700  -13.7977   26.9758 F   0  0  0  0  0  0  0  0  0  0  0  0
    2.2572  -12.0635   25.1122 C   0  0  0  0  0  0  0  0  0  0  0  0
    2.3542  -11.1355   23.9027 C   0  0  0  0  0  0  0  0  0  0  0  0
  1  2  1  0
  2  3  3  0
  3  4  1  0
  4  5  1  0
  5  6  1  0
  6  7  1  0
  7  8  1  0
  8  9  2  0
  9 10  1  0
 10 11  2  0
 11 12  1  0
 12 13  2  0
 13 14  1  0
  7 15  1  0
 15 16  1  0
 16  4  1  0
 13  8  1  0
M  END
>  <inchikey>  (387) 
SMHFRIXEYZDGHL-UHFFFAOYSA-N

>  <tags>  (387) 
fragmenstein_placed,CpKRS_FrAncestor_bulkdock_iter2

>  <ref_pdb>  (387) 
x0540b

>  <energy_score>  (387) 
-11.602544

>  <distance_score>  (387) 
0.636099

>  <HIPPO Pose ID>  (387) 
54642

>  <ref_mols>  (387) 
x0489a

>  <smiles>  (387) 
CC#CC1CCN(c2nccnc2F)CC1

>  <HIPPO Compound ID>  (387) 
133883

>  <alias>  (387) 
SMHFRIXEYZDGHL-UHFFFAOYSA-N-P33

>  <subsites>  (387) 


>  <placement_batch>  (387) 
CpKRS_FrAncestor_bulkdock_iter2

>  <name>  (387) 
SMHFRIXEYZDGHL-UHFFFAOYSA-N-P33

$$$$
DXYKYZLLNRLXHR-UHFFFAOYSA-N-P6
     RDKit          3D

 15 15  0  0  0  0  0  0  0  0999 V2000
    3.8622  -14.4623   23.1475 C   0  0  0  0  0  0  0  0  0  0  0  0
    3.2560  -14.2286   24.5350 C   0  0  0  0  0  0  0  0  0  0  0  0
    2.7515  -15.5647   25.1007 C   0  0  0  0  0  0  0  0  0  0  0  0
    4.2007  -13.4606   25.5202 C   0  0  1  0  0  0  0  0  0  0  0  0
    5.4526  -14.2780   25.8815 C   0  0  0  0  0  0  0  0  0  0  0  0
    4.6620  -12.1076   24.8931 C   0  0  0  0  0  0  0  0  0  0  0  0
    5.0957  -11.1289   25.8941 N   0  0  0  0  0  0  0  0  0  0  0  0
    5.6977   -9.8924   25.3897 C   0  0  0  0  0  0  0  0  0  0  0  0
    5.1720   -9.2555   24.0726 C   0  0  0  0  0  0  0  0  0  0  0  0
    3.6672   -9.0157   24.0913 C   0  0  0  0  0  0  0  0  0  0  0  0
    5.8986   -7.9273   23.8238 C   0  0  0  0  0  0  0  0  0  0  0  0
    5.4574  -10.0855   22.9381 O   0  0  0  0  0  0  0  0  0  0  0  0
    4.0535  -10.8954   26.9098 C   0  0  0  0  0  0  0  0  0  0  0  0
    2.9366  -11.9481   26.9066 C   0  0  0  0  0  0  0  0  0  0  0  0
    3.4675  -13.2642   26.7525 O   0  0  0  0  0  0  0  0  0  0  0  0
  1  2  1  0
  2  3  1  0
  2  4  1  0
  4  5  1  1
  4  6  1  0
  6  7  1  0
  7  8  1  0
  8  9  1  0
  9 10  1  0
  9 11  1  0
  9 12  1  0
  7 13  1  0
 13 14  1  0
 14 15  1  0
 15  4  1  0
M  END
>  <inchikey>  (388) 
DXYKYZLLNRLXHR-UHFFFAOYSA-N

>  <tags>  (388) 
fragmenstein_placed,CpKRS_FrAncestor_bulkdock_iter2

>  <ref_pdb>  (388) 
x0540b

>  <energy_score>  (388) 
-52.135213

>  <distance_score>  (388) 
0.513562

>  <HIPPO Pose ID>  (388) 
54645

>  <ref_mols>  (388) 
x0414a

>  <smiles>  (388) 
CC(C)C1(C)CN(CC(C)(C)O)CCO1

>  <HIPPO Compound ID>  (388) 
322991

>  <alias>  (388) 
DXYKYZLLNRLXHR-UHFFFAOYSA-N-P6

>  <subsites>  (388) 


>  <placement_batch>  (388) 
CpKRS_FrAncestor_bulkdock_iter2

>  <name>  (388) 
DXYKYZLLNRLXHR-UHFFFAOYSA-N-P6

$$$$
NZARSZQNPZXVQW-VUWPPUDQSA-N-P7
     RDKit          3D

 14 14  0  0  0  0  0  0  0  0999 V2000
    4.5552  -15.1767   23.9221 C   0  0  0  0  0  0  0  0  0  0  0  0
    3.9951  -14.8067   25.2977 C   0  0  0  0  0  0  0  0  0  0  0  0
    2.8192  -15.7458   25.6173 C   0  0  0  0  0  0  0  0  0  0  0  0
    3.6197  -13.2967   25.4651 C   0  0  2  0  0  0  0  0  0  0  0  0
    2.3790  -12.9384   24.6152 C   0  0  0  0  0  0  0  0  0  0  0  0
    4.8223  -12.3738   25.1009 C   0  0  0  0  0  0  0  0  0  0  0  0
    4.5506  -10.9517   25.4104 N   0  0  0  0  0  0  0  0  0  0  0  0
    5.6664  -10.0812   25.0248 C   0  0  0  0  0  0  0  0  0  0  0  0
    5.1697   -8.7458   24.4126 C   0  0  2  0  0  0  0  0  0  0  0  0
    4.3616   -9.0203   23.1418 C   0  0  0  0  0  0  0  0  0  0  0  0
    6.2801   -7.8546   24.0464 N   0  0  0  0  0  0  0  0  0  0  0  0
    4.2304  -10.8369   26.8483 C   0  0  0  0  0  0  0  0  0  0  0  0
    3.0812  -11.7729   27.2451 C   0  0  0  0  0  0  0  0  0  0  0  0
    3.3360  -13.1295   26.8750 O   0  0  0  0  0  0  0  0  0  0  0  0
  1  2  1  0
  2  3  1  0
  2  4  1  0
  4  5  1  6
  4  6  1  0
  6  7  1  0
  7  8  1  0
  8  9  1  0
  9 10  1  6
  9 11  1  0
  7 12  1  0
 12 13  1  0
 13 14  1  0
 14  4  1  0
M  END
>  <inchikey>  (389) 
NZARSZQNPZXVQW-UHFFFAOYSA-N

>  <tags>  (389) 
fragmenstein_placed,CpKRS_FrAncestor_bulkdock_iter2

>  <ref_pdb>  (389) 
x0540b

>  <energy_score>  (389) 
-62.74584

>  <distance_score>  (389) 
0.462929

>  <HIPPO Pose ID>  (389) 
54650

>  <ref_mols>  (389) 
x0414b

>  <smiles>  (389) 
CC(C)C1(C)CN(C[C@H](C)N)CCO1

>  <HIPPO Compound ID>  (389) 
449206

>  <alias>  (389) 
NZARSZQNPZXVQW-VUWPPUDQSA-N-P7

>  <subsites>  (389) 


>  <placement_batch>  (389) 
CpKRS_FrAncestor_bulkdock_iter2

>  <name>  (389) 
NZARSZQNPZXVQW-VUWPPUDQSA-N-P7

$$$$
IXTYAMKWXGBCOO-UHFFFAOYSA-N-P7
     RDKit          3D

 13 13  0  0  0  0  0  0  0  0999 V2000
    4.5033  -15.0300   23.7541 C   0  0  0  0  0  0  0  0  0  0  0  0
    4.0525  -14.7047   25.1811 C   0  0  0  0  0  0  0  0  0  0  0  0
    2.9417  -15.6911   25.5794 C   0  0  0  0  0  0  0  0  0  0  0  0
    3.6372  -13.2124   25.4077 C   0  0  2  0  0  0  0  0  0  0  0  0
    2.3023  -12.8966   24.6943 C   0  0  0  0  0  0  0  0  0  0  0  0
    4.7604  -12.2381   24.9366 C   0  0  0  0  0  0  0  0  0  0  0  0
    4.4511  -10.8318   25.2754 N   0  0  0  0  0  0  0  0  0  0  0  0
    5.4843   -9.9027   24.7884 C   0  0  0  0  0  0  0  0  0  0  0  0
    4.8705   -8.5108   24.5007 C   0  0  0  0  0  0  0  0  0  0  0  0
    3.6340   -8.6370   23.6832 N   0  0  0  0  0  0  0  0  0  0  0  0
    4.2705  -10.7348   26.7422 C   0  0  0  0  0  0  0  0  0  0  0  0
    3.2164  -11.7279   27.2529 C   0  0  0  0  0  0  0  0  0  0  0  0
    3.4957  -13.0683   26.8412 O   0  0  0  0  0  0  0  0  0  0  0  0
  1  2  1  0
  2  3  1  0
  2  4  1  0
  4  5  1  6
  4  6  1  0
  6  7  1  0
  7  8  1  0
  8  9  1  0
  9 10  1  0
  7 11  1  0
 11 12  1  0
 12 13  1  0
 13  4  1  0
M  END
>  <inchikey>  (390) 
IXTYAMKWXGBCOO-UHFFFAOYSA-N

>  <tags>  (390) 
fragmenstein_placed,CpKRS_FrAncestor_bulkdock_iter2

>  <ref_pdb>  (390) 
x0540b

>  <energy_score>  (390) 
-51.11557

>  <distance_score>  (390) 
0.541984

>  <HIPPO Pose ID>  (390) 
54656

>  <ref_mols>  (390) 
x0414b

>  <smiles>  (390) 
CC(C)C1(C)CN(CCN)CCO1

>  <HIPPO Compound ID>  (390) 
449208

>  <alias>  (390) 
IXTYAMKWXGBCOO-UHFFFAOYSA-N-P7

>  <subsites>  (390) 


>  <placement_batch>  (390) 
CpKRS_FrAncestor_bulkdock_iter2

>  <name>  (390) 
IXTYAMKWXGBCOO-UHFFFAOYSA-N-P7

$$$$
LQZHUNQARNTBCA-UHFFFAOYSA-N-P7
     RDKit          3D

 13 13  0  0  0  0  0  0  0  0999 V2000
    5.7718  -14.8653   25.6409 C   0  0  0  0  0  0  0  0  0  0  0  0
    4.3188  -14.6189   25.2063 C   0  0  0  0  0  0  0  0  0  0  0  0
    4.1587  -15.1118   23.7630 C   0  0  0  0  0  0  0  0  0  0  0  0
    3.8395  -13.1447   25.4543 C   0  0  2  0  0  0  0  0  0  0  0  0
    2.4176  -12.9551   24.8799 C   0  0  0  0  0  0  0  0  0  0  0  0
    4.8260  -12.1015   24.8567 C   0  0  0  0  0  0  0  0  0  0  0  0
    4.4652  -10.7052   25.2036 N   0  0  0  0  0  0  0  0  0  0  0  0
    5.4543   -9.7644   24.6353 C   0  0  0  0  0  0  0  0  0  0  0  0
    4.8281   -8.3688   24.5032 C   0  0  0  0  0  0  0  0  0  0  0  0
    3.5506   -8.4859   23.8473 O   0  0  0  0  0  0  0  0  0  0  0  0
    4.4073  -10.5990   26.6828 C   0  0  0  0  0  0  0  0  0  0  0  0
    3.4767  -11.6480   27.3079 C   0  0  0  0  0  0  0  0  0  0  0  0
    3.8164  -12.9752   26.8929 O   0  0  0  0  0  0  0  0  0  0  0  0
  1  2  1  0
  2  3  1  0
  2  4  1  0
  4  5  1  6
  4  6  1  0
  6  7  1  0
  7  8  1  0
  8  9  1  0
  9 10  1  0
  7 11  1  0
 11 12  1  0
 12 13  1  0
 13  4  1  0
M  END
>  <inchikey>  (391) 
LQZHUNQARNTBCA-UHFFFAOYSA-N

>  <tags>  (391) 
fragmenstein_placed,CpKRS_FrAncestor_bulkdock_iter2

>  <ref_pdb>  (391) 
x0540b

>  <energy_score>  (391) 
-56.158483

>  <distance_score>  (391) 
0.616521

>  <HIPPO Pose ID>  (391) 
54660

>  <ref_mols>  (391) 
x0414b

>  <smiles>  (391) 
CC(C)C1(C)CN(CCO)CCO1

>  <HIPPO Compound ID>  (391) 
449210

>  <alias>  (391) 
LQZHUNQARNTBCA-UHFFFAOYSA-N-P7

>  <subsites>  (391) 


>  <placement_batch>  (391) 
CpKRS_FrAncestor_bulkdock_iter2

>  <name>  (391) 
LQZHUNQARNTBCA-UHFFFAOYSA-N-P7

$$$$
WEOFCWJVUILBEU-UHFFFAOYSA-N-P60
     RDKit          3D

 19 20  0  0  0  0  0  0  0  0999 V2000
    0.2397  -32.2096   26.8321 C   0  0  0  0  0  0  0  0  0  0  0  0
   -1.2335  -31.7881   26.6879 C   0  0  0  0  0  0  0  0  0  0  0  0
   -2.0897  -33.0008   27.0887 C   0  0  0  0  0  0  0  0  0  0  0  0
   -1.5685  -31.2232   25.2592 C   0  0  1  0  0  0  0  0  0  0  0  0
   -3.0903  -31.0876   25.0685 C   0  0  0  0  0  0  0  0  0  0  0  0
   -0.8819  -29.8237   25.0624 C   0  0  0  0  0  0  0  0  0  0  0  0
   -0.8155  -29.2894   23.6914 N   0  0  0  0  0  0  0  0  0  0  0  0
   -1.8739  -28.3551   23.3026 C   0  0  0  0  0  0  0  0  0  0  0  0
   -1.8895  -27.0579   24.0796 C   0  0  0  0  0  0  0  0  0  0  0  0
   -1.1088  -25.9706   23.6706 C   0  0  0  0  0  0  0  0  0  0  0  0
   -1.1793  -24.7571   24.3549 C   0  0  0  0  0  0  0  0  0  0  0  0
   -1.9870  -24.6281   25.4852 C   0  0  0  0  0  0  0  0  0  0  0  0
   -2.7514  -25.7101   25.9183 C   0  0  0  0  0  0  0  0  0  0  0  0
   -3.5850  -25.6042   27.0779 C   0  0  0  0  0  0  0  0  0  0  0  0
   -4.2717  -25.5640   28.0128 N   0  0  0  0  0  0  0  0  0  0  0  0
   -2.7150  -26.9127   25.2057 C   0  0  0  0  0  0  0  0  0  0  0  0
   -0.7057  -30.3863   22.7069 C   0  0  0  0  0  0  0  0  0  0  0  0
   -0.2097  -31.6993   23.3243 C   0  0  0  0  0  0  0  0  0  0  0  0
   -1.1401  -32.2028   24.2895 O   0  0  0  0  0  0  0  0  0  0  0  0
  1  2  1  0
  2  3  1  0
  2  4  1  0
  4  5  1  1
  4  6  1  0
  6  7  1  0
  7  8  1  0
  8  9  1  0
  9 10  2  0
 10 11  1  0
 11 12  2  0
 12 13  1  0
 13 14  1  0
 14 15  3  0
 13 16  2  0
  7 17  1  0
 17 18  1  0
 18 19  1  0
 19  4  1  0
 16  9  1  0
M  END
>  <inchikey>  (392) 
WEOFCWJVUILBEU-UHFFFAOYSA-N

>  <tags>  (392) 
fragmenstein_placed,CpKRS_FrAncestor_bulkdock_iter2

>  <ref_pdb>  (392) 
x0540b

>  <energy_score>  (392) 
-27.077454

>  <distance_score>  (392) 
0.44653

>  <HIPPO Pose ID>  (392) 
54662

>  <ref_mols>  (392) 
x0675b

>  <smiles>  (392) 
CC(C)C1(C)CN(Cc2cccc(C#N)c2)CCO1

>  <HIPPO Compound ID>  (392) 
449211

>  <alias>  (392) 
WEOFCWJVUILBEU-UHFFFAOYSA-N-P60

>  <subsites>  (392) 


>  <placement_batch>  (392) 
CpKRS_FrAncestor_bulkdock_iter2

>  <name>  (392) 
WEOFCWJVUILBEU-UHFFFAOYSA-N-P60

$$$$
NZYYACZOQLLSLC-UHFFFAOYSA-N-P40
     RDKit          3D

 17 17  0  0  0  0  0  0  0  0999 V2000
   -0.8925  -15.4341   24.3497 C   0  0  0  0  0  0  0  0  0  0  0  0
    0.0439  -15.8329   24.9894 C   0  0  0  0  0  0  0  0  0  0  0  0
    1.2222  -16.2654   25.7541 C   0  0  0  0  0  0  0  0  0  0  0  0
    2.0871  -15.1397   25.8831 N   0  0  0  0  0  0  0  0  0  0  0  0
    3.6189  -15.0380   25.7534 C   0  0  0  0  0  0  0  0  0  0  0  0
    4.3845  -15.8225   25.4530 O   0  0  0  0  0  0  0  0  0  0  0  0
    3.7969  -13.5299   26.0527 N   0  0  0  0  0  0  0  0  0  0  0  0
    4.9701  -12.6806   25.9399 C   0  0  0  0  0  0  0  0  0  0  0  0
    4.8431  -11.6117   27.0429 C   0  0  0  0  0  0  0  0  0  0  0  0
    6.2581  -13.4940   26.1212 C   0  0  0  0  0  0  0  0  0  0  0  0
    4.9670  -12.0057   24.5712 C   0  0  0  0  0  0  0  0  0  0  0  0
    4.5449  -12.6931   23.4254 C   0  0  0  0  0  0  0  0  0  0  0  0
    4.4887  -12.0181   22.2197 C   0  0  0  0  0  0  0  0  0  0  0  0
    4.8133  -10.7191   22.0650 N   0  0  0  0  0  0  0  0  0  0  0  0
    5.2709  -10.0951   23.1587 C   0  0  0  0  0  0  0  0  0  0  0  0
    5.6394   -8.4389   22.9484 Cl  0  0  0  0  0  0  0  0  0  0  0  0
    5.3769  -10.6762   24.4059 C   0  0  0  0  0  0  0  0  0  0  0  0
  1  2  3  0
  2  3  1  0
  3  4  1  0
  4  5  1  0
  5  6  2  0
  5  7  1  0
  7  8  1  0
  8  9  1  0
  8 10  1  0
  8 11  1  0
 11 12  2  0
 12 13  1  0
 13 14  2  0
 14 15  1  0
 15 16  1  0
 15 17  2  0
 17 11  1  0
M  END
>  <inchikey>  (393) 
NZYYACZOQLLSLC-UHFFFAOYSA-N

>  <tags>  (393) 
fragmenstein_placed,CpKRS_FrAncestor_bulkdock_iter2

>  <ref_pdb>  (393) 
x0602b

>  <energy_score>  (393) 
-8.671639

>  <distance_score>  (393) 
0.620493

>  <HIPPO Pose ID>  (393) 
54730

>  <ref_mols>  (393) 
x0602b

>  <smiles>  (393) 
C#CCNC(=O)NC(C)(C)c1ccnc(Cl)c1

>  <HIPPO Compound ID>  (393) 
450565

>  <alias>  (393) 
NZYYACZOQLLSLC-UHFFFAOYSA-N-P40

>  <subsites>  (393) 


>  <placement_batch>  (393) 
CpKRS_FrAncestor_bulkdock_iter2

>  <name>  (393) 
NZYYACZOQLLSLC-UHFFFAOYSA-N-P40

$$$$
USJOZFWVORWFOA-UHFFFAOYSA-N-P6
     RDKit          3D

 13 13  0  0  0  0  0  0  0  0999 V2000
    5.3434   -8.2290   21.9760 C   0  0  0  0  0  0  0  0  0  0  0  0
    5.6992   -8.2136   23.2694 C   0  0  0  0  0  0  0  0  0  0  0  0
    4.8546   -8.7864   24.3718 C   0  0  1  0  0  0  0  0  0  0  0  0
    3.4718   -8.7158   23.9658 O   0  0  0  0  0  0  0  0  0  0  0  0
    5.2441  -10.2629   24.6576 C   0  0  0  0  0  0  0  0  0  0  0  0
    4.1608  -10.9691   25.3469 N   0  0  0  0  0  0  0  0  0  0  0  0
    4.1167  -10.7161   26.7918 C   0  0  0  0  0  0  0  0  0  0  0  0
    2.8411  -11.3173   27.3935 C   0  0  0  0  0  0  0  0  0  0  0  0
    2.6451  -12.7094   27.1487 O   0  0  0  0  0  0  0  0  0  0  0  0
    3.6066  -13.2607   26.2588 C   0  0  0  0  0  0  0  0  0  0  0  0
    3.8695  -12.3869   24.9953 C   0  0  0  0  0  0  0  0  0  0  0  0
    2.5932  -12.3441   24.1294 C   0  0  0  0  0  0  0  0  0  0  0  0
    4.9531  -13.1389   24.2075 C   0  0  0  0  0  0  0  0  0  0  0  0
  1  2  2  0
  2  3  1  0
  3  4  1  6
  3  5  1  0
  5  6  1  0
  6  7  1  0
  7  8  1  0
  8  9  1  0
  9 10  1  0
 10 11  1  0
 11 12  1  0
 11 13  1  0
 11  6  1  0
M  END
>  <inchikey>  (394) 
USJOZFWVORWFOA-UHFFFAOYSA-N

>  <tags>  (394) 
fragmenstein_placed,CpKRS_FrAncestor_bulkdock_iter2

>  <ref_pdb>  (394) 
x0602b

>  <energy_score>  (394) 
-45.542497

>  <distance_score>  (394) 
0.788296

>  <HIPPO Pose ID>  (394) 
54781

>  <ref_mols>  (394) 
x0414a

>  <smiles>  (394) 
C=CC(O)CN1CCOCC1(C)C

>  <HIPPO Compound ID>  (394) 
450568

>  <alias>  (394) 
USJOZFWVORWFOA-UHFFFAOYSA-N-P6

>  <subsites>  (394) 


>  <placement_batch>  (394) 
CpKRS_FrAncestor_bulkdock_iter2

>  <name>  (394) 
USJOZFWVORWFOA-UHFFFAOYSA-N-P6

$$$$
ILYQOIYWMGAZRR-UHFFFAOYSA-N-P6
     RDKit          3D

 11 11  0  0  0  0  0  0  0  0999 V2000
    5.4368   -8.3561   21.7121 C   0  0  0  0  0  0  0  0  0  0  0  0
    5.3753   -8.2370   23.0444 C   0  0  0  0  0  0  0  0  0  0  0  0
    4.6679   -9.2419   23.8971 C   0  0  2  0  0  0  0  0  0  0  0  0
    3.4306   -8.6234   24.2491 O   0  0  0  0  0  0  0  0  0  0  0  0
    5.5154   -9.6689   25.1215 C   0  0  0  0  0  0  0  0  0  0  0  0
    5.0601  -10.8351   25.8851 N   0  0  0  0  0  0  0  0  0  0  0  0
    4.5725  -11.9768   25.1081 C   0  0  0  0  0  0  0  0  0  0  0  0
    4.1902  -13.1218   26.0498 C   0  0  0  0  0  0  0  0  0  0  0  0
    3.1094  -12.7903   26.9206 O   0  0  0  0  0  0  0  0  0  0  0  0
    2.9332  -11.3871   27.1334 C   0  0  0  0  0  0  0  0  0  0  0  0
    4.2275  -10.5579   27.0628 C   0  0  0  0  0  0  0  0  0  0  0  0
  1  2  2  0
  2  3  1  0
  3  4  1  1
  3  5  1  0
  5  6  1  0
  6  7  1  0
  7  8  1  0
  8  9  1  0
  9 10  1  0
 10 11  1  0
 11  6  1  0
M  END
>  <inchikey>  (395) 
ILYQOIYWMGAZRR-UHFFFAOYSA-N

>  <tags>  (395) 
fragmenstein_placed,CpKRS_FrAncestor_bulkdock_iter2

>  <ref_pdb>  (395) 
x0602b

>  <energy_score>  (395) 
-18.422343

>  <distance_score>  (395) 
0.562047

>  <HIPPO Pose ID>  (395) 
54785

>  <ref_mols>  (395) 
x0414a

>  <smiles>  (395) 
C=CC(O)CN1CCOCC1

>  <HIPPO Compound ID>  (395) 
450570

>  <alias>  (395) 
ILYQOIYWMGAZRR-UHFFFAOYSA-N-P6

>  <subsites>  (395) 


>  <placement_batch>  (395) 
CpKRS_FrAncestor_bulkdock_iter2

>  <name>  (395) 
ILYQOIYWMGAZRR-UHFFFAOYSA-N-P6

$$$$
ZSEWEPXSQOWOAQ-UHFFFAOYSA-N-P6
     RDKit          3D

 11 11  0  0  0  0  0  0  0  0999 V2000
    5.8689   -8.0211   23.7252 C   0  0  0  0  0  0  0  0  0  0  0  0
    5.1730   -9.3467   24.0662 C   0  0  0  0  0  0  0  0  0  0  0  0
    3.6629   -9.1485   24.0314 C   0  0  0  0  0  0  0  0  0  0  0  0
    5.5022  -10.2661   23.0176 O   0  0  0  0  0  0  0  0  0  0  0  0
    5.6948   -9.8577   25.4399 C   0  0  0  0  0  0  0  0  0  0  0  0
    5.1073  -11.0379   26.0762 N   0  0  0  0  0  0  0  0  0  0  0  0
    4.7945  -12.1741   25.2082 C   0  0  0  0  0  0  0  0  0  0  0  0
    4.2288  -13.3382   26.0312 C   0  0  0  0  0  0  0  0  0  0  0  0
    3.0649  -13.0196   26.7960 O   0  0  0  0  0  0  0  0  0  0  0  0
    2.7711  -11.6249   26.8564 C   0  0  0  0  0  0  0  0  0  0  0  0
    4.0142  -10.7382   27.0171 C   0  0  0  0  0  0  0  0  0  0  0  0
  1  2  1  0
  2  3  1  0
  2  4  1  0
  2  5  1  0
  5  6  1  0
  6  7  1  0
  7  8  1  0
  8  9  1  0
  9 10  1  0
 10 11  1  0
 11  6  1  0
M  END
>  <inchikey>  (396) 
ZSEWEPXSQOWOAQ-UHFFFAOYSA-N

>  <tags>  (396) 
fragmenstein_placed,CpKRS_FrAncestor_bulkdock_iter2

>  <ref_pdb>  (396) 
x0602b

>  <energy_score>  (396) 
-37.674685

>  <distance_score>  (396) 
0.488576

>  <HIPPO Pose ID>  (396) 
54787

>  <ref_mols>  (396) 
x0414a

>  <smiles>  (396) 
CC(C)(O)CN1CCOCC1

>  <HIPPO Compound ID>  (396) 
450571

>  <alias>  (396) 
ZSEWEPXSQOWOAQ-UHFFFAOYSA-N-P6

>  <subsites>  (396) 


>  <placement_batch>  (396) 
CpKRS_FrAncestor_bulkdock_iter2

>  <name>  (396) 
ZSEWEPXSQOWOAQ-UHFFFAOYSA-N-P6

$$$$
UCBNFSNJAAJCJL-UHFFFAOYSA-N-P7
     RDKit          3D

 11 11  0  0  0  0  0  0  0  0999 V2000
    5.2936   -9.7368   22.0647 C   0  0  0  0  0  0  0  0  0  0  0  0
    4.5371   -8.9429   23.1257 C   0  0  0  0  0  0  0  0  0  0  0  0
    5.2765   -8.7828   24.4623 C   0  0  2  0  0  0  0  0  0  0  0  0
    6.4202   -7.9477   24.2414 O   0  0  0  0  0  0  0  0  0  0  0  0
    5.7045  -10.1202   25.1010 C   0  0  0  0  0  0  0  0  0  0  0  0
    4.5915  -11.0286   25.3976 N   0  0  0  0  0  0  0  0  0  0  0  0
    5.0486  -12.4370   25.3810 C   0  0  0  0  0  0  0  0  0  0  0  0
    3.9249  -13.4042   25.7695 C   0  0  0  0  0  0  0  0  0  0  0  0
    3.4325  -13.0986   27.0728 O   0  0  0  0  0  0  0  0  0  0  0  0
    2.9246  -11.7626   27.1104 C   0  0  0  0  0  0  0  0  0  0  0  0
    4.0140  -10.7449   26.7354 C   0  0  0  0  0  0  0  0  0  0  0  0
  1  2  1  0
  2  3  1  0
  3  4  1  6
  3  5  1  0
  5  6  1  0
  6  7  1  0
  7  8  1  0
  8  9  1  0
  9 10  1  0
 10 11  1  0
 11  6  1  0
M  END
>  <inchikey>  (397) 
UCBNFSNJAAJCJL-UHFFFAOYSA-N

>  <tags>  (397) 
fragmenstein_placed,CpKRS_FrAncestor_bulkdock_iter2

>  <ref_pdb>  (397) 
x0602b

>  <energy_score>  (397) 
-32.027079

>  <distance_score>  (397) 
0.442994

>  <HIPPO Pose ID>  (397) 
54790

>  <ref_mols>  (397) 
x0414b

>  <smiles>  (397) 
CCC(O)CN1CCOCC1

>  <HIPPO Compound ID>  (397) 
450334

>  <alias>  (397) 
UCBNFSNJAAJCJL-UHFFFAOYSA-N-P7

>  <subsites>  (397) 


>  <placement_batch>  (397) 
CpKRS_FrAncestor_bulkdock_iter2

>  <name>  (397) 
UCBNFSNJAAJCJL-UHFFFAOYSA-N-P7

$$$$
RKUOMMXQKQORGV-UHFFFAOYSA-N-P6
     RDKit          3D

 15 15  0  0  0  0  0  0  0  0999 V2000
    6.0169   -6.6585   24.5649 C   0  0  0  0  0  0  0  0  0  0  0  0
    6.0302   -8.1623   24.6769 C   0  0  0  0  0  0  0  0  0  0  0  0
    5.0830   -8.8903   23.7381 C   0  0  2  0  0  0  0  0  0  0  0  0
    3.7274   -8.4260   23.8314 O   0  0  0  0  0  0  0  0  0  0  0  0
    5.1361  -10.4098   24.0046 C   0  0  0  0  0  0  0  0  0  0  0  0
    3.9975  -10.8848   24.8097 N   0  0  0  0  0  0  0  0  0  0  0  0
    4.1962  -10.6188   26.2546 C   0  0  0  0  0  0  0  0  0  0  0  0
    3.3089  -11.4458   27.1779 C   0  0  0  0  0  0  0  0  0  0  0  0
    3.4289  -12.8512   26.9862 O   0  0  0  0  0  0  0  0  0  0  0  0
    3.8258  -13.3013   25.6756 C   0  0  0  0  0  0  0  0  0  0  0  0
    3.0927  -14.6491   25.5086 C   0  0  0  0  0  0  0  0  0  0  0  0
    5.3348  -13.6243   25.7399 C   0  0  0  0  0  0  0  0  0  0  0  0
    3.4796  -12.2647   24.5207 C   0  0  0  0  0  0  0  0  0  0  0  0
    3.9132  -12.8353   23.1360 C   0  0  0  0  0  0  0  0  0  0  0  0
    1.9404  -12.0732   24.3698 C   0  0  0  0  0  0  0  0  0  0  0  0
  1  2  1  0
  2  3  1  0
  3  4  1  1
  3  5  1  0
  5  6  1  0
  6  7  1  0
  7  8  1  0
  8  9  1  0
  9 10  1  0
 10 11  1  0
 10 12  1  0
 10 13  1  0
 13 14  1  0
 13 15  1  0
 13  6  1  0
M  END
>  <inchikey>  (398) 
RKUOMMXQKQORGV-UHFFFAOYSA-N

>  <tags>  (398) 
fragmenstein_placed,CpKRS_FrAncestor_bulkdock_iter2

>  <ref_pdb>  (398) 
x0602b

>  <energy_score>  (398) 
-76.775574

>  <distance_score>  (398) 
0.984825

>  <HIPPO Pose ID>  (398) 
54793

>  <ref_mols>  (398) 
x0414a

>  <smiles>  (398) 
CCC(O)CN1CCOC(C)(C)C1(C)C

>  <HIPPO Compound ID>  (398) 
323004

>  <alias>  (398) 
RKUOMMXQKQORGV-UHFFFAOYSA-N-P6

>  <subsites>  (398) 


>  <placement_batch>  (398) 
CpKRS_FrAncestor_bulkdock_iter2

>  <name>  (398) 
RKUOMMXQKQORGV-UHFFFAOYSA-N-P6

$$$$
HBLABQOTFQMTEN-UHFFFAOYSA-N-P7
     RDKit          3D

 14 14  0  0  0  0  0  0  0  0999 V2000
    4.7795   -9.7781   22.2239 C   0  0  0  0  0  0  0  0  0  0  0  0
    4.8293   -8.7114   23.0318 C   0  0  0  0  0  0  0  0  0  0  0  0
    5.1178   -8.6655   24.5084 C   0  0  2  0  0  0  0  0  0  0  0  0
    6.1580   -7.6871   24.6145 O   0  0  0  0  0  0  0  0  0  0  0  0
    5.5923   -9.9833   25.1778 C   0  0  0  0  0  0  0  0  0  0  0  0
    4.5344  -10.9892   25.3748 N   0  0  0  0  0  0  0  0  0  0  0  0
    3.8744  -10.8590   26.6919 C   0  0  0  0  0  0  0  0  0  0  0  0
    2.7609  -11.9049   26.8914 C   0  0  0  0  0  0  0  0  0  0  0  0
    3.1789  -13.2446   26.5977 O   0  0  0  0  0  0  0  0  0  0  0  0
    3.7844  -13.3708   25.2950 C   0  0  0  0  0  0  0  0  0  0  0  0
    4.2241  -14.8405   25.1740 C   0  0  0  0  0  0  0  0  0  0  0  0
    2.7532  -13.1139   24.1758 C   0  0  0  0  0  0  0  0  0  0  0  0
    5.0031  -12.3889   25.1906 C   0  0  2  0  0  0  0  0  0  0  0  0
    6.1173  -12.7825   26.1743 C   0  0  0  0  0  0  0  0  0  0  0  0
  1  2  2  0
  2  3  1  0
  3  4  1  6
  3  5  1  0
  5  6  1  0
  6  7  1  0
  7  8  1  0
  8  9  1  0
  9 10  1  0
 10 11  1  0
 10 12  1  0
 10 13  1  0
 13 14  1  1
 13  6  1  0
M  END
>  <inchikey>  (399) 
HBLABQOTFQMTEN-UHFFFAOYSA-N

>  <tags>  (399) 
fragmenstein_placed,CpKRS_FrAncestor_bulkdock_iter2

>  <ref_pdb>  (399) 
x0602b

>  <energy_score>  (399) 
-29.363535

>  <distance_score>  (399) 
0.662022

>  <HIPPO Pose ID>  (399) 
54796

>  <ref_mols>  (399) 
x0414b

>  <smiles>  (399) 
C=CC(O)CN1CCOC(C)(C)C1C

>  <HIPPO Compound ID>  (399) 
450572

>  <alias>  (399) 
HBLABQOTFQMTEN-UHFFFAOYSA-N-P7

>  <subsites>  (399) 


>  <placement_batch>  (399) 
CpKRS_FrAncestor_bulkdock_iter2

>  <name>  (399) 
HBLABQOTFQMTEN-UHFFFAOYSA-N-P7

$$$$
MKIJULTVFBZHNR-VEDVMXKPSA-N-P7
     RDKit          3D

 12 12  0  0  0  0  0  0  0  0999 V2000
    4.8591   -8.4808   21.9269 C   0  0  0  0  0  0  0  0  0  0  0  0
    4.3897   -8.8839   23.1157 C   0  0  0  0  0  0  0  0  0  0  0  0
    5.1062   -8.7237   24.4343 C   0  0  2  0  0  0  0  0  0  0  0  0
    6.1903   -7.8087   24.2647 O   0  0  0  0  0  0  0  0  0  0  0  0
    5.6246  -10.1097   24.8905 C   0  0  0  0  0  0  0  0  0  0  0  0
    4.5563  -11.0726   25.2224 N   0  0  0  0  0  0  0  0  0  0  0  0
    5.0588  -12.4623   25.1742 C   0  0  0  0  0  0  0  0  0  0  0  0
    3.9902  -13.4951   25.5556 C   0  0  0  0  0  0  0  0  0  0  0  0
    3.4343  -13.2084   26.8375 O   0  0  0  0  0  0  0  0  0  0  0  0
    2.8264  -11.9150   26.8237 C   0  0  0  0  0  0  0  0  0  0  0  0
    3.8641  -10.8106   26.5086 C   0  0  1  0  0  0  0  0  0  0  0  0
    4.8195  -10.6598   27.6882 C   0  0  0  0  0  0  0  0  0  0  0  0
  1  2  2  0
  2  3  1  0
  3  4  1  6
  3  5  1  0
  5  6  1  0
  6  7  1  0
  7  8  1  0
  8  9  1  0
  9 10  1  0
 10 11  1  0
 11 12  1  1
 11  6  1  0
M  END
>  <inchikey>  (400) 
MKIJULTVFBZHNR-UHFFFAOYSA-N

>  <tags>  (400) 
fragmenstein_placed,CpKRS_FrAncestor_bulkdock_iter2

>  <ref_pdb>  (400) 
x0602b

>  <energy_score>  (400) 
-340.970161

>  <distance_score>  (400) 
0.595

>  <HIPPO Pose ID>  (400) 
54800

>  <ref_mols>  (400) 
x0414b

>  <smiles>  (400) 
C=CC(O)CN1CCOC[C@H]1C

>  <HIPPO Compound ID>  (400) 
450569

>  <alias>  (400) 
MKIJULTVFBZHNR-VEDVMXKPSA-N-P7

>  <subsites>  (400) 


>  <placement_batch>  (400) 
CpKRS_FrAncestor_bulkdock_iter2

>  <name>  (400) 
MKIJULTVFBZHNR-VEDVMXKPSA-N-P7

$$$$
ZWCDWBSRCMYLJM-UHFFFAOYSA-N-P38
     RDKit          3D

 16 16  0  0  0  0  0  0  0  0999 V2000
    5.2582   -9.0768   24.1136 C   0  0  0  0  0  0  0  0  0  0  0  0
    4.6120   -9.4338   22.7758 C   0  0  0  0  0  0  0  0  0  0  0  0
    5.3877   -8.7868   21.6320 C   0  0  0  0  0  0  0  0  0  0  0  0
    3.2742   -8.9002   22.7684 O   0  0  0  0  0  0  0  0  0  0  0  0
    4.5692  -10.9558   22.5272 C   0  0  0  0  0  0  0  0  0  0  0  0
    3.8657  -11.6947   23.5406 N   0  0  0  0  0  0  0  0  0  0  0  0
    4.3414  -12.8323   24.4586 C   0  0  0  0  0  0  0  0  0  0  0  0
    5.3989  -13.3001   24.5942 O   0  0  0  0  0  0  0  0  0  0  0  0
    3.2591  -13.3650   25.3635 C   0  0  0  0  0  0  0  0  0  0  0  0
    3.6059  -14.3868   26.2670 C   0  0  0  0  0  0  0  0  0  0  0  0
    2.6797  -14.8498   27.1997 C   0  0  0  0  0  0  0  0  0  0  0  0
    3.1876  -16.1358   28.4813 Br  0  0  0  0  0  0  0  0  0  0  0  0
    1.3879  -14.3336   27.2327 C   0  0  0  0  0  0  0  0  0  0  0  0
    1.0185  -13.3526   26.3185 C   0  0  0  0  0  0  0  0  0  0  0  0
    1.9534  -12.8713   25.4025 C   0  0  0  0  0  0  0  0  0  0  0  0
    1.5521  -11.8915   24.5799 F   0  0  0  0  0  0  0  0  0  0  0  0
  1  2  1  0
  2  3  1  0
  2  4  1  0
  2  5  1  0
  5  6  1  0
  6  7  1  0
  7  8  2  0
  7  9  1  0
  9 10  2  0
 10 11  1  0
 11 12  1  0
 11 13  2  0
 13 14  1  0
 14 15  2  0
 15 16  1  0
 15  9  1  0
M  END
>  <inchikey>  (401) 
ZWCDWBSRCMYLJM-UHFFFAOYSA-N

>  <tags>  (401) 
fragmenstein_placed,CpKRS_FrAncestor_bulkdock_iter2

>  <ref_pdb>  (401) 
x0602b

>  <energy_score>  (401) 
-16.137536

>  <distance_score>  (401) 
0.35468

>  <HIPPO Pose ID>  (401) 
54801

>  <ref_mols>  (401) 
x0555a

>  <smiles>  (401) 
CC(C)(O)CNC(=O)c1cc(Br)ccc1F

>  <HIPPO Compound ID>  (401) 
137079

>  <alias>  (401) 
ZWCDWBSRCMYLJM-UHFFFAOYSA-N-P38

>  <subsites>  (401) 


>  <placement_batch>  (401) 
CpKRS_FrAncestor_bulkdock_iter2

>  <name>  (401) 
ZWCDWBSRCMYLJM-UHFFFAOYSA-N-P38

$$$$
OXHAQAYCDYITKB-UHFFFAOYSA-N-P31
     RDKit          3D

 16 16  0  0  0  0  0  0  0  0999 V2000
    1.0351   15.0126   40.3839 C   0  0  0  0  0  0  0  0  0  0  0  0
    0.3055   14.0701   41.3296 C   0  0  0  0  0  0  0  0  0  0  0  0
   -0.2378   12.8407   40.6113 C   0  0  0  0  0  0  0  0  0  0  0  0
    0.8441   12.0927   40.0408 O   0  0  0  0  0  0  0  0  0  0  0  0
    1.4545   11.2176   40.8764 C   0  0  0  0  0  0  0  0  0  0  0  0
    1.1057   10.9499   42.0140 O   0  0  0  0  0  0  0  0  0  0  0  0
    2.6658   10.6531   40.2227 C   0  0  0  0  0  0  0  0  0  0  0  0
    3.0532   11.0247   38.9270 C   0  0  0  0  0  0  0  0  0  0  0  0
    4.2094   10.4909   38.3577 C   0  0  0  0  0  0  0  0  0  0  0  0
    4.9784    9.5874   39.0897 C   0  0  0  0  0  0  0  0  0  0  0  0
    6.4630    8.9190   38.4000 S   0  0  0  0  0  0  0  0  0  0  0  0
    7.5985    9.6499   39.3701 N   0  0  0  0  0  0  0  0  0  0  0  0
    6.6277    9.4440   37.0676 O   0  0  0  0  0  0  0  0  0  0  0  0
    6.4781    7.5029   38.6773 O   0  0  0  0  0  0  0  0  0  0  0  0
    4.6059    9.2030   40.3801 C   0  0  0  0  0  0  0  0  0  0  0  0
    3.4531    9.7453   40.9466 C   0  0  0  0  0  0  0  0  0  0  0  0
  1  2  1  0
  2  3  1  0
  3  4  1  0
  4  5  1  0
  5  6  2  0
  5  7  1  0
  7  8  2  0
  8  9  1  0
  9 10  2  0
 10 11  1  0
 11 12  1  0
 11 13  2  0
 11 14  2  0
 10 15  1  0
 15 16  2  0
 16  7  1  0
M  END
>  <inchikey>  (402) 
OXHAQAYCDYITKB-UHFFFAOYSA-N

>  <tags>  (402) 
fragmenstein_placed,CpKRS_FrAncestor_bulkdock_iter2

>  <ref_pdb>  (402) 
x0602b

>  <energy_score>  (402) 
-39.78092

>  <distance_score>  (402) 
0.623688

>  <HIPPO Pose ID>  (402) 
54806

>  <ref_mols>  (402) 
x0487b

>  <smiles>  (402) 
CCCOC(=O)c1ccc(S(N)(=O)=O)cc1

>  <HIPPO Compound ID>  (402) 
450574

>  <alias>  (402) 
OXHAQAYCDYITKB-UHFFFAOYSA-N-P31

>  <subsites>  (402) 


>  <placement_batch>  (402) 
CpKRS_FrAncestor_bulkdock_iter2

>  <name>  (402) 
OXHAQAYCDYITKB-UHFFFAOYSA-N-P31

$$$$
LACMUQWPVXRBRA-UHFFFAOYSA-N-P32
     RDKit          3D

 16 16  0  0  0  0  0  0  0  0999 V2000
    2.0451  -25.9995   13.4535 C   0  0  0  0  0  0  0  0  0  0  0  0
    0.9836  -25.3529   14.3307 C   0  0  0  0  0  0  0  0  0  0  0  0
    0.3563  -24.1458   13.6532 C   0  0  0  0  0  0  0  0  0  0  0  0
    1.6406  -24.8611   15.4989 O   0  0  0  0  0  0  0  0  0  0  0  0
    1.7554  -25.7086   16.5434 C   0  0  0  0  0  0  0  0  0  0  0  0
    1.2770  -26.8238   16.6378 O   0  0  0  0  0  0  0  0  0  0  0  0
    2.5935  -25.0469   17.5675 C   0  0  0  0  0  0  0  0  0  0  0  0
    2.4858  -25.4414   18.9023 C   0  0  0  0  0  0  0  0  0  0  0  0
    3.2127  -24.7572   19.8746 C   0  0  0  0  0  0  0  0  0  0  0  0
    4.0443  -23.6894   19.5006 C   0  0  0  0  0  0  0  0  0  0  0  0
    4.9674  -22.8697   20.7554 S   0  0  0  0  0  0  0  0  0  0  0  0
    6.3667  -22.3950   19.9890 N   0  0  0  0  0  0  0  0  0  0  0  0
    4.2696  -21.6754   21.1589 O   0  0  0  0  0  0  0  0  0  0  0  0
    5.3489  -23.9230   21.6640 O   0  0  0  0  0  0  0  0  0  0  0  0
    4.2099  -23.3393   18.1680 C   0  0  0  0  0  0  0  0  0  0  0  0
    3.4774  -24.0178   17.2054 C   0  0  0  0  0  0  0  0  0  0  0  0
  1  2  1  0
  2  3  1  0
  2  4  1  0
  4  5  1  0
  5  6  2  0
  5  7  1  0
  7  8  2  0
  8  9  1  0
  9 10  2  0
 10 11  1  0
 11 12  1  0
 11 13  2  0
 11 14  2  0
 10 15  1  0
 15 16  2  0
 16  7  1  0
M  END
>  <inchikey>  (403) 
LACMUQWPVXRBRA-UHFFFAOYSA-N

>  <tags>  (403) 
fragmenstein_placed,CpKRS_FrAncestor_bulkdock_iter2

>  <ref_pdb>  (403) 
x0602b

>  <energy_score>  (403) 
-31.250075

>  <distance_score>  (403) 
0.677737

>  <HIPPO Pose ID>  (403) 
54807

>  <ref_mols>  (403) 
x0487a

>  <smiles>  (403) 
CC(C)OC(=O)c1ccc(S(N)(=O)=O)cc1

>  <HIPPO Compound ID>  (403) 
450575

>  <alias>  (403) 
LACMUQWPVXRBRA-UHFFFAOYSA-N-P32

>  <subsites>  (403) 


>  <placement_batch>  (403) 
CpKRS_FrAncestor_bulkdock_iter2

>  <name>  (403) 
LACMUQWPVXRBRA-UHFFFAOYSA-N-P32

$$$$
VJVALUQSCGXTMH-UHFFFAOYSA-N-P47
     RDKit          3D

 16 16  0  0  0  0  0  0  0  0999 V2000
    5.7229    7.2163   39.5784 C   0  0  0  0  0  0  0  0  0  0  0  0
    5.0465    8.5405   39.9165 C   0  0  0  0  0  0  0  0  0  0  0  0
    4.8975    9.4054   38.6708 C   0  0  0  0  0  0  0  0  0  0  0  0
    3.7186    8.2809   40.4201 O   0  0  0  0  0  0  0  0  0  0  0  0
    3.6324    8.0255   41.7547 C   0  0  0  0  0  0  0  0  0  0  0  0
    4.5618    8.1015   42.5502 O   0  0  0  0  0  0  0  0  0  0  0  0
    2.2108    7.6560   42.1610 C   0  0  2  0  0  0  0  0  0  0  0  0
    1.4608    8.9249   42.5280 C   0  0  0  0  0  0  0  0  0  0  0  0
    2.3090    6.7168   43.2677 N   0  0  0  0  0  0  0  0  0  0  0  0
    2.6940    5.2304   43.2834 C   0  0  0  0  0  0  0  0  0  0  0  0
    2.9193    4.5008   42.4058 O   0  0  0  0  0  0  0  0  0  0  0  0
    2.7845    4.7062   44.6451 C   0  0  0  0  0  0  0  0  0  0  0  0
    3.3987    3.5248   45.0274 C   0  0  0  0  0  0  0  0  0  0  0  0
    3.2929    3.1837   46.3616 N   0  0  0  0  0  0  0  0  0  0  0  0
    2.5870    4.1058   46.9781 C   0  0  0  0  0  0  0  0  0  0  0  0
    2.0711    5.4333   46.0184 S   0  0  0  0  0  0  0  0  0  0  0  0
  1  2  1  0
  2  3  1  0
  2  4  1  0
  4  5  1  0
  5  6  2  0
  5  7  1  0
  7  8  1  1
  7  9  1  0
  9 10  1  0
 10 11  2  0
 10 12  1  0
 12 13  2  0
 13 14  1  0
 14 15  2  0
 15 16  1  0
 16 12  1  0
M  END
>  <inchikey>  (404) 
VJVALUQSCGXTMH-UHFFFAOYSA-N

>  <tags>  (404) 
fragmenstein_placed,CpKRS_FrAncestor_bulkdock_iter2

>  <ref_pdb>  (404) 
x0602b

>  <energy_score>  (404) 
-66.345763

>  <distance_score>  (404) 
0.60066

>  <HIPPO Pose ID>  (404) 
54811

>  <ref_mols>  (404) 
x0504c

>  <smiles>  (404) 
CC(C)OC(=O)C(C)NC(=O)c1cncs1

>  <HIPPO Compound ID>  (404) 
155830

>  <alias>  (404) 
VJVALUQSCGXTMH-UHFFFAOYSA-N-P47

>  <subsites>  (404) 


>  <placement_batch>  (404) 
CpKRS_FrAncestor_bulkdock_iter2

>  <name>  (404) 
VJVALUQSCGXTMH-UHFFFAOYSA-N-P47

$$$$
ZUPCGLTZBCJANM-UHFFFAOYSA-N-P47
     RDKit          3D

 16 16  0  0  0  0  0  0  0  0999 V2000
    1.4358   11.8506   41.5664 C   0  0  0  0  0  0  0  0  0  0  0  0
    1.7158   10.4072   41.1780 C   0  0  0  0  0  0  0  0  0  0  0  0
    1.9156   10.2976   39.6700 C   0  0  0  0  0  0  0  0  0  0  0  0
    2.9374    9.9902   41.8272 O   0  0  0  0  0  0  0  0  0  0  0  0
    3.1695    8.7558   42.3491 C   0  0  0  0  0  0  0  0  0  0  0  0
    4.3206    8.4066   42.6122 O   0  0  0  0  0  0  0  0  0  0  0  0
    1.9679    7.8369   42.5884 C   0  0  1  0  0  0  0  0  0  0  0  0
    1.5366    7.1794   41.2883 C   0  0  0  0  0  0  0  0  0  0  0  0
    2.2885    6.8139   43.5725 N   0  0  0  0  0  0  0  0  0  0  0  0
    3.0609    5.4982   43.4261 C   0  0  0  0  0  0  0  0  0  0  0  0
    3.6318    5.0557   42.5133 O   0  0  0  0  0  0  0  0  0  0  0  0
    2.9861    4.7620   44.7006 C   0  0  0  0  0  0  0  0  0  0  0  0
    3.5909    3.5358   44.9134 C   0  0  0  0  0  0  0  0  0  0  0  0
    3.2685    2.9875   46.4971 S   0  0  0  0  0  0  0  0  0  0  0  0
    2.3379    4.3910   46.7888 C   0  0  0  0  0  0  0  0  0  0  0  0
    2.2693    5.2523   45.7973 N   0  0  0  0  0  0  0  0  0  0  0  0
  1  2  1  0
  2  3  1  0
  2  4  1  0
  4  5  1  0
  5  6  2  0
  5  7  1  0
  7  8  1  6
  7  9  1  0
  9 10  1  0
 10 11  2  0
 10 12  1  0
 12 13  2  0
 13 14  1  0
 14 15  1  0
 15 16  2  0
 16 12  1  0
M  END
>  <inchikey>  (405) 
ZUPCGLTZBCJANM-UHFFFAOYSA-N

>  <tags>  (405) 
fragmenstein_placed,CpKRS_FrAncestor_bulkdock_iter2

>  <ref_pdb>  (405) 
x0602b

>  <energy_score>  (405) 
-64.436967

>  <distance_score>  (405) 
0.991176

>  <HIPPO Pose ID>  (405) 
54814

>  <ref_mols>  (405) 
x0504c

>  <smiles>  (405) 
CC(C)OC(=O)C(C)NC(=O)c1cscn1

>  <HIPPO Compound ID>  (405) 
155707

>  <alias>  (405) 
ZUPCGLTZBCJANM-UHFFFAOYSA-N-P47

>  <subsites>  (405) 


>  <placement_batch>  (405) 
CpKRS_FrAncestor_bulkdock_iter2

>  <name>  (405) 
ZUPCGLTZBCJANM-UHFFFAOYSA-N-P47

$$$$
ILXITLZGHTZMOK-UHFFFAOYSA-N-P38
     RDKit          3D

 16 16  0  0  0  0  0  0  0  0999 V2000
    5.3673   -8.8133   21.6427 C   0  0  0  0  0  0  0  0  0  0  0  0
    4.5917   -9.4419   22.7985 C   0  0  0  0  0  0  0  0  0  0  0  0
    5.2332   -9.0529   24.1298 C   0  0  0  0  0  0  0  0  0  0  0  0
    3.2518   -8.9155   22.7738 O   0  0  0  0  0  0  0  0  0  0  0  0
    4.5609  -10.9691   22.5838 C   0  0  0  0  0  0  0  0  0  0  0  0
    3.8796  -11.7035   23.6178 N   0  0  0  0  0  0  0  0  0  0  0  0
    4.3592  -12.8726   24.4945 C   0  0  0  0  0  0  0  0  0  0  0  0
    5.4057  -13.3767   24.5731 O   0  0  0  0  0  0  0  0  0  0  0  0
    3.2928  -13.4166   25.4118 C   0  0  0  0  0  0  0  0  0  0  0  0
    3.6562  -14.4461   26.3028 C   0  0  0  0  0  0  0  0  0  0  0  0
    2.7452  -14.9253   27.2425 C   0  0  0  0  0  0  0  0  0  0  0  0
    3.2223  -16.1117   28.3934 Cl  0  0  0  0  0  0  0  0  0  0  0  0
    1.4520  -14.4118   27.2946 C   0  0  0  0  0  0  0  0  0  0  0  0
    1.0650  -13.4244   26.3927 C   0  0  0  0  0  0  0  0  0  0  0  0
    1.9851  -12.9303   25.4685 C   0  0  0  0  0  0  0  0  0  0  0  0
    1.5664  -11.9527   24.6515 F   0  0  0  0  0  0  0  0  0  0  0  0
  1  2  1  0
  2  3  1  0
  2  4  1  0
  2  5  1  0
  5  6  1  0
  6  7  1  0
  7  8  2  0
  7  9  1  0
  9 10  2  0
 10 11  1  0
 11 12  1  0
 11 13  2  0
 13 14  1  0
 14 15  2  0
 15 16  1  0
 15  9  1  0
M  END
>  <inchikey>  (406) 
ILXITLZGHTZMOK-UHFFFAOYSA-N

>  <tags>  (406) 
fragmenstein_placed,CpKRS_FrAncestor_bulkdock_iter2

>  <ref_pdb>  (406) 
x0602b

>  <energy_score>  (406) 
-14.266147

>  <distance_score>  (406) 
0.302566

>  <HIPPO Pose ID>  (406) 
54815

>  <ref_mols>  (406) 
x0555a

>  <smiles>  (406) 
CC(C)(O)CNC(=O)c1cc(Cl)ccc1F

>  <HIPPO Compound ID>  (406) 
137076

>  <alias>  (406) 
ILXITLZGHTZMOK-UHFFFAOYSA-N-P38

>  <subsites>  (406) 


>  <placement_batch>  (406) 
CpKRS_FrAncestor_bulkdock_iter2

>  <name>  (406) 
ILXITLZGHTZMOK-UHFFFAOYSA-N-P38

$$$$
KGKNXCPJFKGPQZ-UHFFFAOYSA-N-P39
     RDKit          3D

 19 19  0  0  0  0  0  0  0  0999 V2000
    0.2989  -14.6080   24.4503 C   0  0  0  0  0  0  0  0  0  0  0  0
    1.5725  -15.3394   24.0180 C   0  0  0  0  0  0  0  0  0  0  0  0
    1.2448  -16.4489   23.0181 C   0  0  0  0  0  0  0  0  0  0  0  0
    2.3145  -15.8399   25.2263 N   0  0  0  0  0  0  0  0  0  0  0  0
    1.6974  -17.0067   25.8827 C   0  0  0  0  0  0  0  0  0  0  0  0
    3.9972  -15.9749   25.0683 S   0  0  0  0  0  0  0  0  0  0  0  0
    4.5005  -16.9949   25.9566 O   0  0  0  0  0  0  0  0  0  0  0  0
    4.3328  -16.0040   23.6685 O   0  0  0  0  0  0  0  0  0  0  0  0
    4.5183  -14.5487   25.7645 N   0  0  0  0  0  0  0  0  0  0  0  0
    3.8398  -13.2685   25.5748 C   0  0  0  0  0  0  0  0  0  0  0  0
    4.2960  -12.4098   24.4231 C   0  0  0  0  0  0  0  0  0  0  0  0
    4.5672  -12.9283   23.1643 C   0  0  0  0  0  0  0  0  0  0  0  0
    4.9000  -12.0700   22.1434 C   0  0  0  0  0  0  0  0  0  0  0  0
    4.9679  -10.7367   22.2814 N   0  0  0  0  0  0  0  0  0  0  0  0
    4.7329  -10.1965   23.4907 C   0  0  0  0  0  0  0  0  0  0  0  0
    4.8082   -8.7894   23.6045 N   0  0  0  0  0  0  0  0  0  0  0  0
    5.4919   -8.3449   24.8222 C   0  0  0  0  0  0  0  0  0  0  0  0
    5.3725   -8.1915   22.3887 C   0  0  0  0  0  0  0  0  0  0  0  0
    4.3681  -11.0126   24.5688 C   0  0  0  0  0  0  0  0  0  0  0  0
  1  2  1  0
  2  3  1  0
  2  4  1  0
  4  5  1  0
  4  6  1  0
  6  7  2  0
  6  8  2  0
  6  9  1  0
  9 10  1  0
 10 11  1  0
 11 12  2  0
 12 13  1  0
 13 14  2  0
 14 15  1  0
 15 16  1  0
 16 17  1  0
 16 18  1  0
 15 19  2  0
 19 11  1  0
M  END
>  <inchikey>  (407) 
KGKNXCPJFKGPQZ-UHFFFAOYSA-N

>  <tags>  (407) 
fragmenstein_placed,CpKRS_FrAncestor_bulkdock_iter2

>  <ref_pdb>  (407) 
x0602b

>  <energy_score>  (407) 
-41.856808

>  <distance_score>  (407) 
0.564319

>  <HIPPO Pose ID>  (407) 
54902

>  <ref_mols>  (407) 
x0602a

>  <smiles>  (407) 
CC(C)N(C)S(=O)(=O)NCc1ccnc(N(C)C)c1

>  <HIPPO Compound ID>  (407) 
450600

>  <alias>  (407) 
KGKNXCPJFKGPQZ-UHFFFAOYSA-N-P39

>  <subsites>  (407) 


>  <placement_batch>  (407) 
CpKRS_FrAncestor_bulkdock_iter2

>  <name>  (407) 
KGKNXCPJFKGPQZ-UHFFFAOYSA-N-P39

$$$$
MRLSLASRWLTVDG-UHFFFAOYSA-N-P54
     RDKit          3D

 15 15  0  0  0  0  0  0  0  0999 V2000
    5.0774  -38.2580    7.7888 C   0  0  0  0  0  0  0  0  0  0  0  0
    6.5892  -38.0784    7.7319 C   0  0  0  0  0  0  0  0  0  0  0  0
    7.3194  -39.2904    8.2999 C   0  0  0  0  0  0  0  0  0  0  0  0
    7.0587  -36.7958    8.3270 N   0  0  0  0  0  0  0  0  0  0  0  0
    8.3046  -36.2817    7.7292 C   0  0  0  0  0  0  0  0  0  0  0  0
    6.5872  -36.2201    9.8427 S   0  0  0  0  0  0  0  0  0  0  0  0
    7.1937  -34.9274   10.0946 O   0  0  0  0  0  0  0  0  0  0  0  0
    5.1441  -36.3232    9.9388 O   0  0  0  0  0  0  0  0  0  0  0  0
    7.2565  -37.3594   11.0403 C   0  0  0  0  0  0  0  0  0  0  0  0
    6.3398  -38.2222   11.6749 C   0  0  0  0  0  0  0  0  0  0  0  0
    6.7461  -39.0545   12.7164 C   0  0  0  0  0  0  0  0  0  0  0  0
    8.0665  -39.0256   13.1445 C   0  0  0  0  0  0  0  0  0  0  0  0
    8.9790  -38.1687   12.5304 C   0  0  0  0  0  0  0  0  0  0  0  0
    8.5831  -37.3253   11.4821 C   0  0  0  0  0  0  0  0  0  0  0  0
    9.9462  -36.2040   10.7937 Br  0  0  0  0  0  0  0  0  0  0  0  0
  1  2  1  0
  2  3  1  0
  2  4  1  0
  4  5  1  0
  4  6  1  0
  6  7  2  0
  6  8  2  0
  6  9  1  0
  9 10  2  0
 10 11  1  0
 11 12  2  0
 12 13  1  0
 13 14  2  0
 14 15  1  0
 14  9  1  0
M  END
>  <inchikey>  (408) 
MRLSLASRWLTVDG-UHFFFAOYSA-N

>  <tags>  (408) 
fragmenstein_placed,CpKRS_FrAncestor_bulkdock_iter2

>  <ref_pdb>  (408) 
x0602b

>  <energy_score>  (408) 
-30.46128

>  <distance_score>  (408) 
0.239072

>  <HIPPO Pose ID>  (408) 
54906

>  <ref_mols>  (408) 
x0639c

>  <smiles>  (408) 
CC(C)N(C)S(=O)(=O)c1ccccc1Br

>  <HIPPO Compound ID>  (408) 
311503

>  <alias>  (408) 
MRLSLASRWLTVDG-UHFFFAOYSA-N-P54

>  <subsites>  (408) 


>  <placement_batch>  (408) 
CpKRS_FrAncestor_bulkdock_iter2

>  <name>  (408) 
MRLSLASRWLTVDG-UHFFFAOYSA-N-P54

$$$$
RZDJMNOJCUKXGI-UHFFFAOYSA-N-P54
     RDKit          3D

 15 15  0  0  0  0  0  0  0  0999 V2000
    8.4775  -36.7102    5.1583 C   0  0  0  0  0  0  0  0  0  0  0  0
    8.4251  -36.6775    6.3581 C   0  0  0  0  0  0  0  0  0  0  0  0
    8.3658  -36.6295    7.8294 C   0  0  0  0  0  0  0  0  0  0  0  0
    6.9903  -36.8322    8.3177 N   0  0  0  0  0  0  0  0  0  0  0  0
    6.4214  -38.1546    7.9934 C   0  0  0  0  0  0  0  0  0  0  0  0
    6.6041  -36.1985    9.8377 S   0  0  0  0  0  0  0  0  0  0  0  0
    7.2657  -34.9272   10.0417 O   0  0  0  0  0  0  0  0  0  0  0  0
    5.1606  -36.2589    9.9746 O   0  0  0  0  0  0  0  0  0  0  0  0
    7.2672  -37.3689   11.0152 C   0  0  0  0  0  0  0  0  0  0  0  0
    6.3507  -38.2815   11.5750 C   0  0  0  0  0  0  0  0  0  0  0  0
    6.7321  -39.1305   12.6128 C   0  0  0  0  0  0  0  0  0  0  0  0
    8.0280  -39.0737   13.1076 C   0  0  0  0  0  0  0  0  0  0  0  0
    8.9433  -38.1768   12.5590 C   0  0  0  0  0  0  0  0  0  0  0  0
    8.5728  -37.3157   11.5157 C   0  0  0  0  0  0  0  0  0  0  0  0
    9.9459  -36.1603   10.9076 Br  0  0  0  0  0  0  0  0  0  0  0  0
  1  2  3  0
  2  3  1  0
  3  4  1  0
  4  5  1  0
  4  6  1  0
  6  7  2  0
  6  8  2  0
  6  9  1  0
  9 10  2  0
 10 11  1  0
 11 12  2  0
 12 13  1  0
 13 14  2  0
 14 15  1  0
 14  9  1  0
M  END
>  <inchikey>  (409) 
RZDJMNOJCUKXGI-UHFFFAOYSA-N

>  <tags>  (409) 
fragmenstein_placed,CpKRS_FrAncestor_bulkdock_iter2

>  <ref_pdb>  (409) 
x0602b

>  <energy_score>  (409) 
-51.817941

>  <distance_score>  (409) 
0.275243

>  <HIPPO Pose ID>  (409) 
54909

>  <ref_mols>  (409) 
x0639c

>  <smiles>  (409) 
C#CCN(C)S(=O)(=O)c1ccccc1Br

>  <HIPPO Compound ID>  (409) 
311703

>  <alias>  (409) 
RZDJMNOJCUKXGI-UHFFFAOYSA-N-P54

>  <subsites>  (409) 


>  <placement_batch>  (409) 
CpKRS_FrAncestor_bulkdock_iter2

>  <name>  (409) 
RZDJMNOJCUKXGI-UHFFFAOYSA-N-P54

$$$$
SXAWDDHQHDXEOT-UHFFFAOYSA-N-P54
     RDKit          3D

 16 16  0  0  0  0  0  0  0  0999 V2000
    8.7997  -36.1483    5.2363 C   0  0  0  0  0  0  0  0  0  0  0  0
    8.0366  -35.9390    6.1403 C   0  0  0  0  0  0  0  0  0  0  0  0
    7.1038  -35.6759    7.2495 C   0  0  0  0  0  0  0  0  0  0  0  0
    7.2511  -36.6938    8.3198 N   0  0  0  0  0  0  0  0  0  0  0  0
    6.7947  -38.0377    7.8916 C   0  0  0  0  0  0  0  0  0  0  0  0
    6.6066  -36.1653    9.8011 S   0  0  0  0  0  0  0  0  0  0  0  0
    5.1723  -36.3701    9.7398 O   0  0  0  0  0  0  0  0  0  0  0  0
    7.1242  -34.8499   10.1229 O   0  0  0  0  0  0  0  0  0  0  0  0
    7.2757  -37.2965   10.9975 C   0  0  0  0  0  0  0  0  0  0  0  0
    6.3860  -38.1232   11.7034 C   0  0  0  0  0  0  0  0  0  0  0  0
    6.8598  -38.9351   12.7321 C   0  0  0  0  0  0  0  0  0  0  0  0
    8.2135  -38.9213   13.0582 C   0  0  0  0  0  0  0  0  0  0  0  0
    9.0996  -38.1066   12.3492 C   0  0  0  0  0  0  0  0  0  0  0  0
    8.6411  -37.2850   11.3125 C   0  0  0  0  0  0  0  0  0  0  0  0
    9.6011  -36.4703   10.6265 C   0  0  0  0  0  0  0  0  0  0  0  0
   10.4031  -35.7973   10.0384 C   0  0  0  0  0  0  0  0  0  0  0  0
  1  2  3  0
  2  3  1  0
  3  4  1  0
  4  5  1  0
  4  6  1  0
  6  7  2  0
  6  8  2  0
  6  9  1  0
  9 10  2  0
 10 11  1  0
 11 12  2  0
 12 13  1  0
 13 14  2  0
 14 15  1  0
 15 16  3  0
 14  9  1  0
M  END
>  <inchikey>  (410) 
SXAWDDHQHDXEOT-UHFFFAOYSA-N

>  <tags>  (410) 
fragmenstein_placed,CpKRS_FrAncestor_bulkdock_iter2

>  <ref_pdb>  (410) 
x0602b

>  <energy_score>  (410) 
-27.179483

>  <distance_score>  (410) 
0.199448

>  <HIPPO Pose ID>  (410) 
54912

>  <ref_mols>  (410) 
x0639c

>  <smiles>  (410) 
C#CCN(C)S(=O)(=O)c1ccccc1C#C

>  <HIPPO Compound ID>  (410) 
134422

>  <alias>  (410) 
SXAWDDHQHDXEOT-UHFFFAOYSA-N-P54

>  <subsites>  (410) 


>  <placement_batch>  (410) 
CpKRS_FrAncestor_bulkdock_iter2

>  <name>  (410) 
SXAWDDHQHDXEOT-UHFFFAOYSA-N-P54

$$$$
ZAYCPGTZJUZOFO-UHFFFAOYSA-N-P54
     RDKit          3D

 15 15  0  0  0  0  0  0  0  0999 V2000
    9.3402  -37.7129    7.7421 C   0  0  0  0  0  0  0  0  0  0  0  0
    8.4105  -36.5024    7.7620 C   0  0  0  0  0  0  0  0  0  0  0  0
    8.2311  -35.9244    6.3580 C   0  0  0  0  0  0  0  0  0  0  0  0
    7.0727  -36.8165    8.3297 N   0  0  0  0  0  0  0  0  0  0  0  0
    6.4411  -38.0795    7.9140 C   0  0  0  0  0  0  0  0  0  0  0  0
    6.6356  -36.1958    9.8425 S   0  0  0  0  0  0  0  0  0  0  0  0
    7.2524  -34.9041   10.0603 O   0  0  0  0  0  0  0  0  0  0  0  0
    5.1922  -36.3032    9.9516 O   0  0  0  0  0  0  0  0  0  0  0  0
    7.3106  -37.3478   11.0226 C   0  0  0  0  0  0  0  0  0  0  0  0
    6.4240  -38.2990   11.5636 C   0  0  0  0  0  0  0  0  0  0  0  0
    6.8286  -39.1365   12.6019 C   0  0  0  0  0  0  0  0  0  0  0  0
    8.1162  -39.0286   13.1125 C   0  0  0  0  0  0  0  0  0  0  0  0
    8.9998  -38.0899   12.5804 C   0  0  0  0  0  0  0  0  0  0  0  0
    8.6047  -37.2395   11.5393 C   0  0  0  0  0  0  0  0  0  0  0  0
    9.7983  -36.1223   10.9917 Cl  0  0  0  0  0  0  0  0  0  0  0  0
  1  2  1  0
  2  3  1  0
  2  4  1  0
  4  5  1  0
  4  6  1  0
  6  7  2  0
  6  8  2  0
  6  9  1  0
  9 10  2  0
 10 11  1  0
 11 12  2  0
 12 13  1  0
 13 14  2  0
 14 15  1  0
 14  9  1  0
M  END
>  <inchikey>  (411) 
ZAYCPGTZJUZOFO-UHFFFAOYSA-N

>  <tags>  (411) 
fragmenstein_placed,CpKRS_FrAncestor_bulkdock_iter2

>  <ref_pdb>  (411) 
x0602b

>  <energy_score>  (411) 
-29.766979

>  <distance_score>  (411) 
0.268317

>  <HIPPO Pose ID>  (411) 
54915

>  <ref_mols>  (411) 
x0639c

>  <smiles>  (411) 
CC(C)N(C)S(=O)(=O)c1ccccc1Cl

>  <HIPPO Compound ID>  (411) 
311502

>  <alias>  (411) 
ZAYCPGTZJUZOFO-UHFFFAOYSA-N-P54

>  <subsites>  (411) 


>  <placement_batch>  (411) 
CpKRS_FrAncestor_bulkdock_iter2

>  <name>  (411) 
ZAYCPGTZJUZOFO-UHFFFAOYSA-N-P54

$$$$
CVCHMTSEFBPOQK-UHFFFAOYSA-N-P54
     RDKit          3D

 15 15  0  0  0  0  0  0  0  0999 V2000
    8.6482  -36.6292    5.2153 C   0  0  0  0  0  0  0  0  0  0  0  0
    8.5563  -36.6085    6.4130 C   0  0  0  0  0  0  0  0  0  0  0  0
    8.4483  -36.5752    7.8818 C   0  0  0  0  0  0  0  0  0  0  0  0
    7.0591  -36.8048    8.3220 N   0  0  0  0  0  0  0  0  0  0  0  0
    6.5239  -38.1350    7.9717 C   0  0  0  0  0  0  0  0  0  0  0  0
    6.6215  -36.1921    9.8368 S   0  0  0  0  0  0  0  0  0  0  0  0
    5.1785  -36.2983    9.9462 O   0  0  0  0  0  0  0  0  0  0  0  0
    7.2416  -34.9031   10.0604 O   0  0  0  0  0  0  0  0  0  0  0  0
    7.2980  -37.3454   11.0173 C   0  0  0  0  0  0  0  0  0  0  0  0
    6.4086  -38.2837   11.5753 C   0  0  0  0  0  0  0  0  0  0  0  0
    6.8186  -39.1190   12.6133 C   0  0  0  0  0  0  0  0  0  0  0  0
    8.1139  -39.0210   13.1067 C   0  0  0  0  0  0  0  0  0  0  0  0
    9.0004  -38.0949   12.5576 C   0  0  0  0  0  0  0  0  0  0  0  0
    8.6003  -37.2476   11.5162 C   0  0  0  0  0  0  0  0  0  0  0  0
    9.7966  -36.1457   10.9432 Cl  0  0  0  0  0  0  0  0  0  0  0  0
  1  2  3  0
  2  3  1  0
  3  4  1  0
  4  5  1  0
  4  6  1  0
  6  7  2  0
  6  8  2  0
  6  9  1  0
  9 10  2  0
 10 11  1  0
 11 12  2  0
 12 13  1  0
 13 14  2  0
 14 15  1  0
 14  9  1  0
M  END
>  <inchikey>  (412) 
CVCHMTSEFBPOQK-UHFFFAOYSA-N

>  <tags>  (412) 
fragmenstein_placed,CpKRS_FrAncestor_bulkdock_iter2

>  <ref_pdb>  (412) 
x0602b

>  <energy_score>  (412) 
-51.516551

>  <distance_score>  (412) 
0.245245

>  <HIPPO Pose ID>  (412) 
54918

>  <ref_mols>  (412) 
x0639c

>  <smiles>  (412) 
C#CCN(C)S(=O)(=O)c1ccccc1Cl

>  <HIPPO Compound ID>  (412) 
311702

>  <alias>  (412) 
CVCHMTSEFBPOQK-UHFFFAOYSA-N-P54

>  <subsites>  (412) 


>  <placement_batch>  (412) 
CpKRS_FrAncestor_bulkdock_iter2

>  <name>  (412) 
CVCHMTSEFBPOQK-UHFFFAOYSA-N-P54

$$$$
TYSYFHPHQPITRQ-UHFFFAOYSA-N-P54
     RDKit          3D

 15 15  0  0  0  0  0  0  0  0999 V2000
    4.3331  -38.1790    6.8584 C   0  0  0  0  0  0  0  0  0  0  0  0
    5.4397  -38.1268    7.3228 C   0  0  0  0  0  0  0  0  0  0  0  0
    6.7905  -38.0620    7.8952 C   0  0  0  0  0  0  0  0  0  0  0  0
    7.2006  -36.7051    8.3174 N   0  0  0  0  0  0  0  0  0  0  0  0
    7.1611  -35.7050    7.2308 C   0  0  0  0  0  0  0  0  0  0  0  0
    6.6008  -36.1466    9.7984 S   0  0  0  0  0  0  0  0  0  0  0  0
    7.2092  -34.8648   10.1019 O   0  0  0  0  0  0  0  0  0  0  0  0
    5.1579  -36.2646    9.7899 O   0  0  0  0  0  0  0  0  0  0  0  0
    7.2479  -37.3137   10.9879 C   0  0  0  0  0  0  0  0  0  0  0  0
    6.3280  -38.1452   11.6486 C   0  0  0  0  0  0  0  0  0  0  0  0
    6.7558  -38.9813   12.6765 C   0  0  0  0  0  0  0  0  0  0  0  0
    8.0950  -38.9845   13.0516 C   0  0  0  0  0  0  0  0  0  0  0  0
    9.0133  -38.1663   12.3908 C   0  0  0  0  0  0  0  0  0  0  0  0
    8.6116  -37.3235   11.3415 C   0  0  0  0  0  0  0  0  0  0  0  0
    9.6437  -36.4314   10.7104 C   0  0  0  0  0  0  0  0  0  0  0  0
  1  2  3  0
  2  3  1  0
  3  4  1  0
  4  5  1  0
  4  6  1  0
  6  7  2  0
  6  8  2  0
  6  9  1  0
  9 10  2  0
 10 11  1  0
 11 12  2  0
 12 13  1  0
 13 14  2  0
 14 15  1  0
 14  9  1  0
M  END
>  <inchikey>  (413) 
TYSYFHPHQPITRQ-UHFFFAOYSA-N

>  <tags>  (413) 
fragmenstein_placed,CpKRS_FrAncestor_bulkdock_iter2

>  <ref_pdb>  (413) 
x0602b

>  <energy_score>  (413) 
-45.143609

>  <distance_score>  (413) 
0.202542

>  <HIPPO Pose ID>  (413) 
54921

>  <ref_mols>  (413) 
x0639c

>  <smiles>  (413) 
C#CCN(C)S(=O)(=O)c1ccccc1C

>  <HIPPO Compound ID>  (413) 
311704

>  <alias>  (413) 
TYSYFHPHQPITRQ-UHFFFAOYSA-N-P54

>  <subsites>  (413) 


>  <placement_batch>  (413) 
CpKRS_FrAncestor_bulkdock_iter2

>  <name>  (413) 
TYSYFHPHQPITRQ-UHFFFAOYSA-N-P54

$$$$
RYFDZQWYSMSMKS-UHFFFAOYSA-N-P7
     RDKit          3D

 11 11  0  0  0  0  0  0  0  0999 V2000
    6.4884  -10.5573   26.1045 C   0  0  0  0  0  0  0  0  0  0  0  0
    5.3920  -10.5935   25.0470 C   0  0  2  0  0  0  0  0  0  0  0  0
    4.9278   -9.1471   24.6708 C   0  0  0  0  0  0  0  0  0  0  0  0
    5.9591   -8.3046   24.0437 N   0  0  0  0  0  0  0  0  0  0  0  0
    4.2441  -11.4272   25.4374 N   0  0  0  0  0  0  0  0  0  0  0  0
    3.7974  -11.2772   26.8385 C   0  0  0  0  0  0  0  0  0  0  0  0
    2.5492  -12.1192   27.1375 C   0  0  0  0  0  0  0  0  0  0  0  0
    2.7582  -13.4947   26.8005 O   0  0  0  0  0  0  0  0  0  0  0  0
    3.0288  -13.5902   25.3983 C   0  0  0  0  0  0  0  0  0  0  0  0
    4.3420  -12.8582   25.0457 C   0  0  2  0  0  0  0  0  0  0  0  0
    5.5039  -13.6560   25.6531 C   0  0  0  0  0  0  0  0  0  0  0  0
  2  1  1  1
  2  3  1  0
  3  4  1  0
  2  5  1  0
  5  6  1  0
  6  7  1  0
  7  8  1  0
  8  9  1  0
  9 10  1  0
 10 11  1  1
 10  5  1  0
M  END
>  <inchikey>  (414) 
RYFDZQWYSMSMKS-UHFFFAOYSA-N

>  <tags>  (414) 
fragmenstein_placed,CpKRS_FrAncestor_bulkdock_iter2

>  <ref_pdb>  (414) 
x0602b

>  <energy_score>  (414) 
-42.882449

>  <distance_score>  (414) 
0.873566

>  <HIPPO Pose ID>  (414) 
54923

>  <ref_mols>  (414) 
x0414b

>  <smiles>  (414) 
CC(CN)N1CCOCC1C

>  <HIPPO Compound ID>  (414) 
450601

>  <alias>  (414) 
RYFDZQWYSMSMKS-UHFFFAOYSA-N-P7

>  <subsites>  (414) 


>  <placement_batch>  (414) 
CpKRS_FrAncestor_bulkdock_iter2

>  <name>  (414) 
RYFDZQWYSMSMKS-UHFFFAOYSA-N-P7

$$$$
PKTHUBCDDJVKKA-UHFFFAOYSA-N-P7
     RDKit          3D

 10 10  0  0  0  0  0  0  0  0999 V2000
    5.3321   -9.9533   23.0173 C   0  0  0  0  0  0  0  0  0  0  0  0
    5.4605   -9.8290   24.5515 C   0  0  1  0  0  0  0  0  0  0  0  0
    5.2775   -8.3275   24.9337 C   0  0  0  0  0  0  0  0  0  0  0  0
    6.2348   -7.4202   24.2815 N   0  0  0  0  0  0  0  0  0  0  0  0
    4.4809  -10.7387   25.2080 N   0  0  0  0  0  0  0  0  0  0  0  0
    4.3403  -10.5113   26.6689 C   0  0  0  0  0  0  0  0  0  0  0  0
    3.4004  -11.5308   27.3341 C   0  0  0  0  0  0  0  0  0  0  0  0
    3.8702  -12.8612   27.1171 O   0  0  0  0  0  0  0  0  0  0  0  0
    3.8937  -13.1371   25.7183 C   0  0  0  0  0  0  0  0  0  0  0  0
    4.8440  -12.1679   25.0021 C   0  0  0  0  0  0  0  0  0  0  0  0
  2  1  1  6
  2  3  1  0
  3  4  1  0
  2  5  1  0
  5  6  1  0
  6  7  1  0
  7  8  1  0
  8  9  1  0
  9 10  1  0
 10  5  1  0
M  END
>  <inchikey>  (415) 
PKTHUBCDDJVKKA-UHFFFAOYSA-N

>  <tags>  (415) 
fragmenstein_placed,CpKRS_FrAncestor_bulkdock_iter2

>  <ref_pdb>  (415) 
x0602b

>  <energy_score>  (415) 
-33.258724

>  <distance_score>  (415) 
0.591588

>  <HIPPO Pose ID>  (415) 
54925

>  <ref_mols>  (415) 
x0414b

>  <smiles>  (415) 
CC(CN)N1CCOCC1

>  <HIPPO Compound ID>  (415) 
450602

>  <alias>  (415) 
PKTHUBCDDJVKKA-UHFFFAOYSA-N-P7

>  <subsites>  (415) 


>  <placement_batch>  (415) 
CpKRS_FrAncestor_bulkdock_iter2

>  <name>  (415) 
PKTHUBCDDJVKKA-UHFFFAOYSA-N-P7

$$$$
UTTUQCRNPOKLJD-UHFFFAOYSA-N-P6
     RDKit          3D

 12 12  0  0  0  0  0  0  0  0999 V2000
    5.2040   -8.3328   26.0039 C   0  0  0  0  0  0  0  0  0  0  0  0
    5.5405   -9.5719   25.1484 C   0  0  2  0  0  0  0  0  0  0  0  0
    5.4288   -9.2334   23.6364 C   0  0  0  0  0  0  0  0  0  0  0  0
    4.0770   -8.8942   23.1769 N   0  0  0  0  0  0  0  0  0  0  0  0
    4.7941  -10.7361   25.6256 N   0  0  0  0  0  0  0  0  0  0  0  0
    5.2465  -12.0394   25.1337 C   0  0  0  0  0  0  0  0  0  0  0  0
    4.1803  -13.1555   25.1915 C   0  0  0  0  0  0  0  0  0  0  0  0
    3.3683  -13.0821   26.3571 O   0  0  0  0  0  0  0  0  0  0  0  0
    2.7954  -11.7699   26.5612 C   0  0  0  0  0  0  0  0  0  0  0  0
    1.2866  -11.9160   26.3728 C   0  0  0  0  0  0  0  0  0  0  0  0
    3.1798  -11.3843   27.9841 C   0  0  0  0  0  0  0  0  0  0  0  0
    3.3353  -10.6852   25.5936 C   0  0  0  0  0  0  0  0  0  0  0  0
  2  1  1  1
  2  3  1  0
  3  4  1  0
  2  5  1  0
  5  6  1  0
  6  7  1  0
  7  8  1  0
  8  9  1  0
  9 10  1  0
  9 11  1  0
  9 12  1  0
 12  5  1  0
M  END
>  <inchikey>  (416) 
UTTUQCRNPOKLJD-UHFFFAOYSA-N

>  <tags>  (416) 
fragmenstein_placed,CpKRS_FrAncestor_bulkdock_iter2

>  <ref_pdb>  (416) 
x0602b

>  <energy_score>  (416) 
-17.811926

>  <distance_score>  (416) 
0.785927

>  <HIPPO Pose ID>  (416) 
54926

>  <ref_mols>  (416) 
x0414a

>  <smiles>  (416) 
CC(CN)N1CCOC(C)(C)C1

>  <HIPPO Compound ID>  (416) 
450603

>  <alias>  (416) 
UTTUQCRNPOKLJD-UHFFFAOYSA-N-P6

>  <subsites>  (416) 


>  <placement_batch>  (416) 
CpKRS_FrAncestor_bulkdock_iter2

>  <name>  (416) 
UTTUQCRNPOKLJD-UHFFFAOYSA-N-P6

$$$$
MNYRIFGUCPJATL-UHFFFAOYSA-N-P6
     RDKit          3D

 14 14  0  0  0  0  0  0  0  0999 V2000
    6.5110   -9.6568   24.6636 C   0  0  0  0  0  0  0  0  0  0  0  0
    5.0957   -9.4412   25.1527 C   0  0  1  0  0  0  0  0  0  0  0  0
    4.3207   -8.8099   23.9743 C   0  0  0  0  0  0  0  0  0  0  0  0
    2.9518   -8.3942   24.3006 N   0  0  0  0  0  0  0  0  0  0  0  0
    4.6191  -10.7284   25.6784 N   0  0  0  0  0  0  0  0  0  0  0  0
    3.9553  -10.6201   26.9820 C   0  0  0  0  0  0  0  0  0  0  0  0
    2.7745  -11.5783   27.1627 C   0  0  0  0  0  0  0  0  0  0  0  0
    3.1285  -12.9046   26.7746 O   0  0  0  0  0  0  0  0  0  0  0  0
    3.5351  -13.0165   25.3882 C   0  0  2  0  0  0  0  0  0  0  0  0
    2.3101  -13.5768   24.6398 C   0  0  0  0  0  0  0  0  0  0  0  0
    4.6946  -14.0618   25.3699 C   0  0  0  0  0  0  0  0  0  0  0  0
    5.0842  -14.5523   23.9737 C   0  0  0  0  0  0  0  0  0  0  0  0
    5.9445  -13.5646   26.0956 C   0  0  0  0  0  0  0  0  0  0  0  0
    3.9150  -11.6287   24.7600 C   0  0  0  0  0  0  0  0  0  0  0  0
  2  1  1  6
  2  3  1  0
  3  4  1  0
  2  5  1  0
  5  6  1  0
  6  7  1  0
  7  8  1  0
  8  9  1  0
  9 10  1  6
  9 11  1  0
 11 12  1  0
 11 13  1  0
  9 14  1  0
 14  5  1  0
M  END
>  <inchikey>  (417) 
MNYRIFGUCPJATL-UHFFFAOYSA-N

>  <tags>  (417) 
fragmenstein_placed,CpKRS_FrAncestor_bulkdock_iter2

>  <ref_pdb>  (417) 
x0602b

>  <energy_score>  (417) 
-26.267617

>  <distance_score>  (417) 
0.792859

>  <HIPPO Pose ID>  (417) 
54928

>  <ref_mols>  (417) 
x0414a

>  <smiles>  (417) 
CC(CN)N1CCOC(C)(C(C)C)C1

>  <HIPPO Compound ID>  (417) 
450604

>  <alias>  (417) 
MNYRIFGUCPJATL-UHFFFAOYSA-N-P6

>  <subsites>  (417) 


>  <placement_batch>  (417) 
CpKRS_FrAncestor_bulkdock_iter2

>  <name>  (417) 
MNYRIFGUCPJATL-UHFFFAOYSA-N-P6

$$$$
GMFXRZMFKKLOLL-BRFYHDHCSA-N-P7
     RDKit          3D

 11 11  0  0  0  0  0  0  0  0999 V2000
    6.5192  -10.5500   26.0240 C   0  0  0  0  0  0  0  0  0  0  0  0
    5.3887  -10.4555   25.0047 C   0  0  2  0  0  0  0  0  0  0  0  0
    4.9617   -8.9777   24.7432 C   0  0  0  0  0  0  0  0  0  0  0  0
    5.9894   -8.1491   24.0940 N   0  0  0  0  0  0  0  0  0  0  0  0
    4.2369  -11.3111   25.3551 N   0  0  0  0  0  0  0  0  0  0  0  0
    3.7527  -11.1425   26.7472 C   0  0  0  0  0  0  0  0  0  0  0  0
    2.5789  -12.0853   27.0537 C   0  0  0  0  0  0  0  0  0  0  0  0
    2.9474  -13.4538   26.8329 O   0  0  0  0  0  0  0  0  0  0  0  0
    3.3295  -13.6383   25.4657 C   0  0  2  0  0  0  0  0  0  0  0  0
    3.6715  -15.1102   25.2707 C   0  0  0  0  0  0  0  0  0  0  0  0
    4.5355  -12.7433   25.1261 C   0  0  0  0  0  0  0  0  0  0  0  0
  2  1  1  1
  2  3  1  0
  3  4  1  0
  2  5  1  0
  5  6  1  0
  6  7  1  0
  7  8  1  0
  8  9  1  0
  9 10  1  1
  9 11  1  0
 11  5  1  0
M  END
>  <inchikey>  (418) 
GMFXRZMFKKLOLL-UHFFFAOYSA-N

>  <tags>  (418) 
fragmenstein_placed,CpKRS_FrAncestor_bulkdock_iter2

>  <ref_pdb>  (418) 
x0602b

>  <energy_score>  (418) 
-36.887144

>  <distance_score>  (418) 
0.756972

>  <HIPPO Pose ID>  (418) 
54931

>  <ref_mols>  (418) 
x0414b

>  <smiles>  (418) 
CC(CN)N1CCO[C@H](C)C1

>  <HIPPO Compound ID>  (418) 
447940

>  <alias>  (418) 
GMFXRZMFKKLOLL-BRFYHDHCSA-N-P7

>  <subsites>  (418) 


>  <placement_batch>  (418) 
CpKRS_FrAncestor_bulkdock_iter2

>  <name>  (418) 
GMFXRZMFKKLOLL-BRFYHDHCSA-N-P7

$$$$
DKOJAWPGRUQDBI-UHFFFAOYSA-N-P21
     RDKit          3D

 15 15  0  0  0  0  0  0  0  0999 V2000
   23.2258    7.7662   22.7572 C   0  0  0  0  0  0  0  0  0  0  0  0
   22.5434    7.5085   24.1079 C   0  0  0  0  0  0  0  0  0  0  0  0
   21.2025    6.7780   23.8976 C   0  0  0  0  0  0  0  0  0  0  0  0
   22.2032    8.7448   24.8525 N   0  0  0  0  0  0  0  0  0  0  0  0
   21.6295   10.1505   24.1776 S   0  0  0  0  0  0  0  0  0  0  0  0
   23.1385   10.9461   23.7459 C   0  0  0  0  0  0  0  0  0  0  0  0
   21.0272   10.8832   25.2718 O   0  0  0  0  0  0  0  0  0  0  0  0
   20.9168    9.9080   22.9483 O   0  0  0  0  0  0  0  0  0  0  0  0
   23.5680    6.7238   24.9582 C   0  0  0  0  0  0  0  0  0  0  0  0
   23.5821    5.3236   25.0172 C   0  0  0  0  0  0  0  0  0  0  0  0
   24.5250    4.6226   25.7777 C   0  0  0  0  0  0  0  0  0  0  0  0
   25.5020    5.3137   26.4805 C   0  0  0  0  0  0  0  0  0  0  0  0
   25.5323    6.6968   26.4015 C   0  0  0  0  0  0  0  0  0  0  0  0
   26.4705    7.3710   27.0808 F   0  0  0  0  0  0  0  0  0  0  0  0
   24.5871    7.4006   25.6558 C   0  0  0  0  0  0  0  0  0  0  0  0
  1  2  1  0
  2  3  1  0
  2  4  1  0
  4  5  1  0
  5  6  1  0
  5  7  2  0
  5  8  2  0
  2  9  1  0
  9 10  2  0
 10 11  1  0
 11 12  2  0
 12 13  1  0
 13 14  1  0
 13 15  2  0
 15  9  1  0
M  END
>  <inchikey>  (419) 
DKOJAWPGRUQDBI-UHFFFAOYSA-N

>  <tags>  (419) 
fragmenstein_placed,CpKRS_FrAncestor_bulkdock_iter2

>  <ref_pdb>  (419) 
x0602b

>  <energy_score>  (419) 
-48.781607

>  <distance_score>  (419) 
0.440187

>  <HIPPO Pose ID>  (419) 
54942

>  <ref_mols>  (419) 
x0472a

>  <smiles>  (419) 
CC(C)(NS(C)(=O)=O)c1cccc(F)c1

>  <HIPPO Compound ID>  (419) 
311580

>  <alias>  (419) 
DKOJAWPGRUQDBI-UHFFFAOYSA-N-P21

>  <subsites>  (419) 


>  <placement_batch>  (419) 
CpKRS_FrAncestor_bulkdock_iter2

>  <name>  (419) 
DKOJAWPGRUQDBI-UHFFFAOYSA-N-P21

$$$$
INLPHABCTMPZGH-UHFFFAOYSA-N-P27
     RDKit          3D

 16 16  0  0  0  0  0  0  0  0999 V2000
   16.8259   27.4136   26.3621 C   0  0  0  0  0  0  0  0  0  0  0  0
   15.3300   27.5795   26.1075 C   0  0  0  0  0  0  0  0  0  0  0  0
   14.7173   26.3162   25.5108 C   0  0  0  0  0  0  0  0  0  0  0  0
   13.6495   25.7009   26.2952 N   0  0  0  0  0  0  0  0  0  0  0  0
   13.3915   24.0469   26.0366 S   0  0  0  0  0  0  0  0  0  0  0  0
   12.4466   23.6148   27.0321 O   0  0  0  0  0  0  0  0  0  0  0  0
   13.1592   23.8549   24.6235 O   0  0  0  0  0  0  0  0  0  0  0  0
   14.9717   23.3205   26.4120 C   0  0  0  0  0  0  0  0  0  0  0  0
   15.3029   22.0944   25.8443 C   0  0  0  0  0  0  0  0  0  0  0  0
   16.5729   21.5574   26.0769 C   0  0  0  0  0  0  0  0  0  0  0  0
   17.5159   22.2332   26.8740 C   0  0  0  0  0  0  0  0  0  0  0  0
   18.8414   21.5864   27.2070 C   0  0  0  0  0  0  0  0  0  0  0  0
   19.9915   22.1605   26.5073 C   0  0  0  0  0  0  0  0  0  0  0  0
   20.9377   22.6060   26.0034 N   0  0  0  0  0  0  0  0  0  0  0  0
   17.1761   23.4736   27.4207 C   0  0  0  0  0  0  0  0  0  0  0  0
   15.9045   24.0012   27.2050 C   0  0  0  0  0  0  0  0  0  0  0  0
  1  2  1  0
  2  3  1  0
  3  4  1  0
  4  5  1  0
  5  6  2  0
  5  7  2  0
  5  8  1  0
  8  9  2  0
  9 10  1  0
 10 11  2  0
 11 12  1  0
 12 13  1  0
 13 14  3  0
 11 15  1  0
 15 16  2  0
 16  8  1  0
M  END
>  <inchikey>  (420) 
INLPHABCTMPZGH-UHFFFAOYSA-N

>  <tags>  (420) 
fragmenstein_placed,CpKRS_FrAncestor_bulkdock_iter2

>  <ref_pdb>  (420) 
x0602b

>  <energy_score>  (420) 
-14.648886

>  <distance_score>  (420) 
0.828258

>  <HIPPO Pose ID>  (420) 
54946

>  <ref_mols>  (420) 
x0483a

>  <smiles>  (420) 
CCCNS(=O)(=O)c1ccc(CC#N)cc1

>  <HIPPO Compound ID>  (420) 
450609

>  <alias>  (420) 
INLPHABCTMPZGH-UHFFFAOYSA-N-P27

>  <subsites>  (420) 


>  <placement_batch>  (420) 
CpKRS_FrAncestor_bulkdock_iter2

>  <name>  (420) 
INLPHABCTMPZGH-UHFFFAOYSA-N-P27

$$$$
RJPNSJNRRHJCOW-UHFFFAOYSA-N-P31
     RDKit          3D

 18 18  0  0  0  0  0  0  0  0999 V2000
    1.6867   10.8502   42.3229 C   0  0  0  0  0  0  0  0  0  0  0  0
    1.5739   10.6492   40.8070 C   0  0  0  0  0  0  0  0  0  0  0  0
    0.6415    9.4813   40.4297 C   0  0  0  0  0  0  0  0  0  0  0  0
    1.0040   11.8678   40.1684 N   0  0  0  0  0  0  0  0  0  0  0  0
   -0.2884   12.7304   40.7840 S   0  0  0  0  0  0  0  0  0  0  0  0
    0.5111   14.1250   41.5422 C   0  0  0  0  0  0  0  0  0  0  0  0
   -0.9720   13.2168   39.6057 O   0  0  0  0  0  0  0  0  0  0  0  0
   -0.9737   11.9469   41.7862 O   0  0  0  0  0  0  0  0  0  0  0  0
    2.9582   10.3092   40.2085 C   0  0  0  0  0  0  0  0  0  0  0  0
    3.4250   10.9185   39.0351 C   0  0  0  0  0  0  0  0  0  0  0  0
    4.6015   10.4858   38.4218 C   0  0  0  0  0  0  0  0  0  0  0  0
    5.3771    9.4669   38.9807 C   0  0  0  0  0  0  0  0  0  0  0  0
    6.6134    8.9627   38.2825 C   0  0  0  0  0  0  0  0  0  0  0  0
    6.5835    7.6079   38.1344 F   0  0  0  0  0  0  0  0  0  0  0  0
    7.7665    9.2425   38.9373 F   0  0  0  0  0  0  0  0  0  0  0  0
    6.7565    9.4602   37.0230 F   0  0  0  0  0  0  0  0  0  0  0  0
    4.9552    8.8839   40.1757 C   0  0  0  0  0  0  0  0  0  0  0  0
    3.7544    9.2841   40.7647 C   0  0  0  0  0  0  0  0  0  0  0  0
  1  2  1  0
  2  3  1  0
  2  4  1  0
  4  5  1  0
  5  6  1  0
  5  7  2  0
  5  8  2  0
  2  9  1  0
  9 10  2  0
 10 11  1  0
 11 12  2  0
 12 13  1  0
 13 14  1  0
 13 15  1  0
 13 16  1  0
 12 17  1  0
 17 18  2  0
 18  9  1  0
M  END
>  <inchikey>  (421) 
RJPNSJNRRHJCOW-UHFFFAOYSA-N

>  <tags>  (421) 
fragmenstein_placed,CpKRS_FrAncestor_bulkdock_iter2

>  <ref_pdb>  (421) 
x0602b

>  <energy_score>  (421) 
-60.784843

>  <distance_score>  (421) 
0.526076

>  <HIPPO Pose ID>  (421) 
54948

>  <ref_mols>  (421) 
x0487b

>  <smiles>  (421) 
CC(C)(NS(C)(=O)=O)c1ccc(C(F)(F)F)cc1

>  <HIPPO Compound ID>  (421) 
450610

>  <alias>  (421) 
RJPNSJNRRHJCOW-UHFFFAOYSA-N-P31

>  <subsites>  (421) 


>  <placement_batch>  (421) 
CpKRS_FrAncestor_bulkdock_iter2

>  <name>  (421) 
RJPNSJNRRHJCOW-UHFFFAOYSA-N-P31

$$$$
IELWMQVVCNEJIU-UHFFFAOYSA-N-P54
     RDKit          3D

 15 15  0  0  0  0  0  0  0  0999 V2000
    8.2153  -37.8506    5.7405 C   0  0  0  0  0  0  0  0  0  0  0  0
    7.7507  -38.6650    6.9398 C   0  0  0  0  0  0  0  0  0  0  0  0
    6.6891  -37.9515    7.7740 C   0  0  0  0  0  0  0  0  0  0  0  0
    7.2813  -36.8003    8.4566 N   0  0  0  0  0  0  0  0  0  0  0  0
    6.5628  -36.2398    9.8630 S   0  0  0  0  0  0  0  0  0  0  0  0
    7.1157  -34.9298   10.1429 O   0  0  0  0  0  0  0  0  0  0  0  0
    5.1381  -36.3808    9.6799 O   0  0  0  0  0  0  0  0  0  0  0  0
    7.1925  -37.3501   11.1033 C   0  0  0  0  0  0  0  0  0  0  0  0
    8.5791  -37.3538   11.3743 C   0  0  0  0  0  0  0  0  0  0  0  0
    9.8887  -36.3170   10.4532 Br  0  0  0  0  0  0  0  0  0  0  0  0
    9.1024  -38.1539   12.3997 C   0  0  0  0  0  0  0  0  0  0  0  0
    8.2664  -38.9504   13.1675 C   0  0  0  0  0  0  0  0  0  0  0  0
    6.9018  -38.9545   12.9124 C   0  0  0  0  0  0  0  0  0  0  0  0
    6.3536  -38.1596   11.8917 C   0  0  0  0  0  0  0  0  0  0  0  0
    4.4610  -38.2948   11.7717 Br  0  0  0  0  0  0  0  0  0  0  0  0
  1  2  1  0
  2  3  1  0
  3  4  1  0
  4  5  1  0
  5  6  2  0
  5  7  2  0
  5  8  1  0
  8  9  2  0
  9 10  1  0
  9 11  1  0
 11 12  2  0
 12 13  1  0
 13 14  2  0
 14 15  1  0
 14  8  1  0
M  END
>  <inchikey>  (422) 
IELWMQVVCNEJIU-UHFFFAOYSA-N

>  <tags>  (422) 
fragmenstein_placed,CpKRS_FrAncestor_bulkdock_iter2

>  <ref_pdb>  (422) 
x0602b

>  <energy_score>  (422) 
-38.371933

>  <distance_score>  (422) 
0.229749

>  <HIPPO Pose ID>  (422) 
54953

>  <ref_mols>  (422) 
x0639c

>  <smiles>  (422) 
CCCNS(=O)(=O)c1c(Br)cccc1Br

>  <HIPPO Compound ID>  (422) 
450612

>  <alias>  (422) 
IELWMQVVCNEJIU-UHFFFAOYSA-N-P54

>  <subsites>  (422) 


>  <placement_batch>  (422) 
CpKRS_FrAncestor_bulkdock_iter2

>  <name>  (422) 
IELWMQVVCNEJIU-UHFFFAOYSA-N-P54

$$$$
BRXHNJHDCWQRFT-UHFFFAOYSA-N-P54
     RDKit          3D

 15 15  0  0  0  0  0  0  0  0999 V2000
    6.8301  -39.5525    5.8724 C   0  0  0  0  0  0  0  0  0  0  0  0
    7.1148  -38.1609    6.4132 C   0  0  0  0  0  0  0  0  0  0  0  0
    6.9096  -38.0946    7.9236 C   0  0  0  0  0  0  0  0  0  0  0  0
    7.2056  -36.7378    8.3822 N   0  0  0  0  0  0  0  0  0  0  0  0
    6.5551  -36.1899    9.8192 S   0  0  0  0  0  0  0  0  0  0  0  0
    7.1207  -34.8905   10.1121 O   0  0  0  0  0  0  0  0  0  0  0  0
    5.1201  -36.3629    9.7503 O   0  0  0  0  0  0  0  0  0  0  0  0
    7.1771  -37.3289   11.0322 C   0  0  0  0  0  0  0  0  0  0  0  0
    6.2430  -38.1311   11.7081 C   0  0  0  0  0  0  0  0  0  0  0  0
    6.6599  -38.9446   12.7580 C   0  0  0  0  0  0  0  0  0  0  0  0
    5.3918  -39.9912   13.6882 Br  0  0  0  0  0  0  0  0  0  0  0  0
    7.9970  -38.9730   13.1383 C   0  0  0  0  0  0  0  0  0  0  0  0
    8.9284  -38.1848   12.4587 C   0  0  0  0  0  0  0  0  0  0  0  0
    8.5264  -37.3567   11.4036 C   0  0  0  0  0  0  0  0  0  0  0  0
    9.8932  -36.3426   10.5638 Br  0  0  0  0  0  0  0  0  0  0  0  0
  1  2  1  0
  2  3  1  0
  3  4  1  0
  4  5  1  0
  5  6  2  0
  5  7  2  0
  5  8  1  0
  8  9  2  0
  9 10  1  0
 10 11  1  0
 10 12  2  0
 12 13  1  0
 13 14  2  0
 14 15  1  0
 14  8  1  0
M  END
>  <inchikey>  (423) 
BRXHNJHDCWQRFT-UHFFFAOYSA-N

>  <tags>  (423) 
fragmenstein_placed,CpKRS_FrAncestor_bulkdock_iter2

>  <ref_pdb>  (423) 
x0602b

>  <energy_score>  (423) 
-28.178022

>  <distance_score>  (423) 
0.214248

>  <HIPPO Pose ID>  (423) 
54956

>  <ref_mols>  (423) 
x0639c

>  <smiles>  (423) 
CCCNS(=O)(=O)c1cc(Br)ccc1Br

>  <HIPPO Compound ID>  (423) 
450613

>  <alias>  (423) 
BRXHNJHDCWQRFT-UHFFFAOYSA-N-P54

>  <subsites>  (423) 


>  <placement_batch>  (423) 
CpKRS_FrAncestor_bulkdock_iter2

>  <name>  (423) 
BRXHNJHDCWQRFT-UHFFFAOYSA-N-P54

$$$$
UYELEYYVUKMNLS-UHFFFAOYSA-N-P54
     RDKit          3D

 15 15  0  0  0  0  0  0  0  0999 V2000
    6.8667  -39.5343    5.8659 C   0  0  0  0  0  0  0  0  0  0  0  0
    7.1527  -38.1454    6.4129 C   0  0  0  0  0  0  0  0  0  0  0  0
    6.9330  -38.0818    7.9215 C   0  0  0  0  0  0  0  0  0  0  0  0
    7.2307  -36.7272    8.3861 N   0  0  0  0  0  0  0  0  0  0  0  0
    6.5765  -36.1840    9.8235 S   0  0  0  0  0  0  0  0  0  0  0  0
    7.1376  -34.8837   10.1201 O   0  0  0  0  0  0  0  0  0  0  0  0
    5.1420  -36.3621    9.7540 O   0  0  0  0  0  0  0  0  0  0  0  0
    7.1983  -37.3215   11.0329 C   0  0  0  0  0  0  0  0  0  0  0  0
    6.2745  -38.1353   11.7079 C   0  0  0  0  0  0  0  0  0  0  0  0
    6.7053  -38.9448   12.7554 C   0  0  0  0  0  0  0  0  0  0  0  0
    5.4540  -40.0103   13.6866 Br  0  0  0  0  0  0  0  0  0  0  0  0
    8.0444  -38.9556   13.1323 C   0  0  0  0  0  0  0  0  0  0  0  0
    8.9638  -38.1536   12.4511 C   0  0  0  0  0  0  0  0  0  0  0  0
    8.5476  -37.3300   11.3994 C   0  0  0  0  0  0  0  0  0  0  0  0
    9.7630  -36.3837   10.6195 Cl  0  0  0  0  0  0  0  0  0  0  0  0
  1  2  1  0
  2  3  1  0
  3  4  1  0
  4  5  1  0
  5  6  2  0
  5  7  2  0
  5  8  1  0
  8  9  2  0
  9 10  1  0
 10 11  1  0
 10 12  2  0
 12 13  1  0
 13 14  2  0
 14 15  1  0
 14  8  1  0
M  END
>  <inchikey>  (424) 
UYELEYYVUKMNLS-UHFFFAOYSA-N

>  <tags>  (424) 
fragmenstein_placed,CpKRS_FrAncestor_bulkdock_iter2

>  <ref_pdb>  (424) 
x0602b

>  <energy_score>  (424) 
-46.606142

>  <distance_score>  (424) 
0.200927

>  <HIPPO Pose ID>  (424) 
54959

>  <ref_mols>  (424) 
x0639c

>  <smiles>  (424) 
CCCNS(=O)(=O)c1cc(Br)ccc1Cl

>  <HIPPO Compound ID>  (424) 
450614

>  <alias>  (424) 
UYELEYYVUKMNLS-UHFFFAOYSA-N-P54

>  <subsites>  (424) 


>  <placement_batch>  (424) 
CpKRS_FrAncestor_bulkdock_iter2

>  <name>  (424) 
UYELEYYVUKMNLS-UHFFFAOYSA-N-P54

$$$$
ZKEWDECFHIENHG-UHFFFAOYSA-N-P54
     RDKit          3D

 15 15  0  0  0  0  0  0  0  0999 V2000
    5.1790  -38.8640    5.9585 C   0  0  0  0  0  0  0  0  0  0  0  0
    5.7469  -37.6220    6.6253 C   0  0  0  0  0  0  0  0  0  0  0  0
    6.6678  -37.9826    7.7853 C   0  0  0  0  0  0  0  0  0  0  0  0
    7.2063  -36.7644    8.3795 N   0  0  0  0  0  0  0  0  0  0  0  0
    6.6072  -36.1738    9.8141 S   0  0  0  0  0  0  0  0  0  0  0  0
    7.2364  -34.8949   10.0690 O   0  0  0  0  0  0  0  0  0  0  0  0
    5.1658  -36.2914    9.7862 O   0  0  0  0  0  0  0  0  0  0  0  0
    7.2441  -37.3242   11.0207 C   0  0  0  0  0  0  0  0  0  0  0  0
    6.3128  -38.1427   11.6796 C   0  0  0  0  0  0  0  0  0  0  0  0
    6.7300  -38.9608   12.7237 C   0  0  0  0  0  0  0  0  0  0  0  0
    5.4662  -40.0312   13.6336 Br  0  0  0  0  0  0  0  0  0  0  0  0
    8.0628  -38.9743   13.1166 C   0  0  0  0  0  0  0  0  0  0  0  0
    8.9916  -38.1676   12.4545 C   0  0  0  0  0  0  0  0  0  0  0  0
    8.6038  -37.3343   11.3915 C   0  0  0  0  0  0  0  0  0  0  0  0
    9.6468  -36.4523   10.7634 C   0  0  0  0  0  0  0  0  0  0  0  0
  1  2  1  0
  2  3  1  0
  3  4  1  0
  4  5  1  0
  5  6  2  0
  5  7  2  0
  5  8  1  0
  8  9  2  0
  9 10  1  0
 10 11  1  0
 10 12  2  0
 12 13  1  0
 13 14  2  0
 14 15  1  0
 14  8  1  0
M  END
>  <inchikey>  (425) 
ZKEWDECFHIENHG-UHFFFAOYSA-N

>  <tags>  (425) 
fragmenstein_placed,CpKRS_FrAncestor_bulkdock_iter2

>  <ref_pdb>  (425) 
x0602b

>  <energy_score>  (425) 
-31.443905

>  <distance_score>  (425) 
0.213635

>  <HIPPO Pose ID>  (425) 
54962

>  <ref_mols>  (425) 
x0639c

>  <smiles>  (425) 
CCCNS(=O)(=O)c1cc(Br)ccc1C

>  <HIPPO Compound ID>  (425) 
450615

>  <alias>  (425) 
ZKEWDECFHIENHG-UHFFFAOYSA-N-P54

>  <subsites>  (425) 


>  <placement_batch>  (425) 
CpKRS_FrAncestor_bulkdock_iter2

>  <name>  (425) 
ZKEWDECFHIENHG-UHFFFAOYSA-N-P54

$$$$
MQZAPWBIWYKXBS-UHFFFAOYSA-N-P54
     RDKit          3D

 15 15  0  0  0  0  0  0  0  0999 V2000
    6.7615  -39.5814    5.8793 C   0  0  0  0  0  0  0  0  0  0  0  0
    7.0540  -38.1886    6.4125 C   0  0  0  0  0  0  0  0  0  0  0  0
    6.8590  -38.1157    7.9240 C   0  0  0  0  0  0  0  0  0  0  0  0
    7.1623  -36.7582    8.3752 N   0  0  0  0  0  0  0  0  0  0  0  0
    6.5267  -36.2031    9.8163 S   0  0  0  0  0  0  0  0  0  0  0  0
    7.1010  -34.9063   10.1031 O   0  0  0  0  0  0  0  0  0  0  0  0
    5.0900  -36.3657    9.7543 O   0  0  0  0  0  0  0  0  0  0  0  0
    7.1484  -37.3445   11.0321 C   0  0  0  0  0  0  0  0  0  0  0  0
    6.1979  -38.1185   11.7212 C   0  0  0  0  0  0  0  0  0  0  0  0
    6.5953  -38.9353   12.7759 C   0  0  0  0  0  0  0  0  0  0  0  0
    5.3021  -39.9390   13.7187 Br  0  0  0  0  0  0  0  0  0  0  0  0
    7.9312  -38.9972   13.1514 C   0  0  0  0  0  0  0  0  0  0  0  0
    8.8807  -38.2407   12.4617 C   0  0  0  0  0  0  0  0  0  0  0  0
    8.4999  -37.4084   11.3983 C   0  0  0  0  0  0  0  0  0  0  0  0
   10.0645  -36.3654   10.4749 I   0  0  0  0  0  0  0  0  0  0  0  0
  1  2  1  0
  2  3  1  0
  3  4  1  0
  4  5  1  0
  5  6  2  0
  5  7  2  0
  5  8  1  0
  8  9  2  0
  9 10  1  0
 10 11  1  0
 10 12  2  0
 12 13  1  0
 13 14  2  0
 14 15  1  0
 14  8  1  0
M  END
>  <inchikey>  (426) 
MQZAPWBIWYKXBS-UHFFFAOYSA-N

>  <tags>  (426) 
fragmenstein_placed,CpKRS_FrAncestor_bulkdock_iter2

>  <ref_pdb>  (426) 
x0602b

>  <energy_score>  (426) 
-29.914442

>  <distance_score>  (426) 
0.254959

>  <HIPPO Pose ID>  (426) 
54965

>  <ref_mols>  (426) 
x0639c

>  <smiles>  (426) 
CCCNS(=O)(=O)c1cc(Br)ccc1I

>  <HIPPO Compound ID>  (426) 
450616

>  <alias>  (426) 
MQZAPWBIWYKXBS-UHFFFAOYSA-N-P54

>  <subsites>  (426) 


>  <placement_batch>  (426) 
CpKRS_FrAncestor_bulkdock_iter2

>  <name>  (426) 
MQZAPWBIWYKXBS-UHFFFAOYSA-N-P54

$$$$
IWTSFILRQGYZGA-UHFFFAOYSA-N-P54
     RDKit          3D

 15 15  0  0  0  0  0  0  0  0999 V2000
    8.0925  -37.7082    5.6655 C   0  0  0  0  0  0  0  0  0  0  0  0
    7.6925  -38.5412    6.8752 C   0  0  0  0  0  0  0  0  0  0  0  0
    6.6310  -37.8681    7.7423 C   0  0  0  0  0  0  0  0  0  0  0  0
    7.1995  -36.6987    8.4102 N   0  0  0  0  0  0  0  0  0  0  0  0
    6.5773  -36.2072    9.8795 S   0  0  0  0  0  0  0  0  0  0  0  0
    5.1492  -36.4408    9.8584 O   0  0  0  0  0  0  0  0  0  0  0  0
    7.0981  -34.8884   10.1681 O   0  0  0  0  0  0  0  0  0  0  0  0
    7.3175  -37.3485   11.0209 C   0  0  0  0  0  0  0  0  0  0  0  0
    6.4703  -38.2458   11.6938 C   0  0  0  0  0  0  0  0  0  0  0  0
    7.0028  -39.1849   12.5784 C   0  0  0  0  0  0  0  0  0  0  0  0
    8.3777  -39.2259   12.7904 C   0  0  0  0  0  0  0  0  0  0  0  0
    9.1278  -40.5860   13.8682 Br  0  0  0  0  0  0  0  0  0  0  0  0
    9.2191  -38.3102   12.1616 C   0  0  0  0  0  0  0  0  0  0  0  0
    8.6936  -37.3650   11.2725 C   0  0  0  0  0  0  0  0  0  0  0  0
    9.9540  -36.2069   10.4533 Br  0  0  0  0  0  0  0  0  0  0  0  0
  1  2  1  0
  2  3  1  0
  3  4  1  0
  4  5  1  0
  5  6  2  0
  5  7  2  0
  5  8  1  0
  8  9  2  0
  9 10  1  0
 10 11  2  0
 11 12  1  0
 11 13  1  0
 13 14  2  0
 14 15  1  0
 14  8  1  0
M  END
>  <inchikey>  (427) 
IWTSFILRQGYZGA-UHFFFAOYSA-N

>  <tags>  (427) 
fragmenstein_placed,CpKRS_FrAncestor_bulkdock_iter2

>  <ref_pdb>  (427) 
x0602b

>  <energy_score>  (427) 
-36.441463

>  <distance_score>  (427) 
0.337052

>  <HIPPO Pose ID>  (427) 
54968

>  <ref_mols>  (427) 
x0639c

>  <smiles>  (427) 
CCCNS(=O)(=O)c1ccc(Br)cc1Br

>  <HIPPO Compound ID>  (427) 
450617

>  <alias>  (427) 
IWTSFILRQGYZGA-UHFFFAOYSA-N-P54

>  <subsites>  (427) 


>  <placement_batch>  (427) 
CpKRS_FrAncestor_bulkdock_iter2

>  <name>  (427) 
IWTSFILRQGYZGA-UHFFFAOYSA-N-P54

$$$$
KSVJRWZBWMGYBO-UHFFFAOYSA-N-P54
     RDKit          3D

 16 16  0  0  0  0  0  0  0  0999 V2000
    6.9708  -39.6874    6.0713 C   0  0  0  0  0  0  0  0  0  0  0  0
    7.5458  -38.4585    6.7559 C   0  0  0  0  0  0  0  0  0  0  0  0
    6.5648  -37.8692    7.7649 C   0  0  0  0  0  0  0  0  0  0  0  0
    7.1769  -36.6943    8.3857 N   0  0  0  0  0  0  0  0  0  0  0  0
    6.6116  -36.1793    9.8729 S   0  0  0  0  0  0  0  0  0  0  0  0
    7.1796  -34.8732   10.1318 O   0  0  0  0  0  0  0  0  0  0  0  0
    5.1786  -36.3759    9.9005 O   0  0  0  0  0  0  0  0  0  0  0  0
    7.3759  -37.3391   11.0025 C   0  0  0  0  0  0  0  0  0  0  0  0
    6.5214  -38.2525   11.6475 C   0  0  0  0  0  0  0  0  0  0  0  0
    7.0399  -39.1980   12.5287 C   0  0  0  0  0  0  0  0  0  0  0  0
    8.4081  -39.2275   12.7662 C   0  0  0  0  0  0  0  0  0  0  0  0
    9.1463  -40.5876   13.8542 Br  0  0  0  0  0  0  0  0  0  0  0  0
    9.2576  -38.2956   12.1636 C   0  0  0  0  0  0  0  0  0  0  0  0
    8.7671  -37.3308   11.2638 C   0  0  0  0  0  0  0  0  0  0  0  0
    9.7003  -36.3180   10.6290 C   0  0  0  0  0  0  0  0  0  0  0  0
   11.2009  -36.5259   10.8147 C   0  0  0  0  0  0  0  0  0  0  0  0
  1  2  1  0
  2  3  1  0
  3  4  1  0
  4  5  1  0
  5  6  2  0
  5  7  2  0
  5  8  1  0
  8  9  2  0
  9 10  1  0
 10 11  2  0
 11 12  1  0
 11 13  1  0
 13 14  2  0
 14 15  1  0
 15 16  1  0
 14  8  1  0
M  END
>  <inchikey>  (428) 
KSVJRWZBWMGYBO-UHFFFAOYSA-N

>  <tags>  (428) 
fragmenstein_placed,CpKRS_FrAncestor_bulkdock_iter2

>  <ref_pdb>  (428) 
x0602b

>  <energy_score>  (428) 
-43.38382

>  <distance_score>  (428) 
0.341855

>  <HIPPO Pose ID>  (428) 
54971

>  <ref_mols>  (428) 
x0639c

>  <smiles>  (428) 
CCCNS(=O)(=O)c1ccc(Br)cc1CC

>  <HIPPO Compound ID>  (428) 
450618

>  <alias>  (428) 
KSVJRWZBWMGYBO-UHFFFAOYSA-N-P54

>  <subsites>  (428) 


>  <placement_batch>  (428) 
CpKRS_FrAncestor_bulkdock_iter2

>  <name>  (428) 
KSVJRWZBWMGYBO-UHFFFAOYSA-N-P54

$$$$
KUWWZXXLHAKRMN-UHFFFAOYSA-N-P54
     RDKit          3D

 15 15  0  0  0  0  0  0  0  0999 V2000
    8.0864  -37.6873    5.6540 C   0  0  0  0  0  0  0  0  0  0  0  0
    7.7013  -38.5255    6.8650 C   0  0  0  0  0  0  0  0  0  0  0  0
    6.6463  -37.8587    7.7448 C   0  0  0  0  0  0  0  0  0  0  0  0
    7.2184  -36.6922    8.4146 N   0  0  0  0  0  0  0  0  0  0  0  0
    6.5984  -36.2005    9.8844 S   0  0  0  0  0  0  0  0  0  0  0  0
    7.1107  -34.8774   10.1679 O   0  0  0  0  0  0  0  0  0  0  0  0
    5.1720  -36.4448    9.8713 O   0  0  0  0  0  0  0  0  0  0  0  0
    7.3489  -37.3313   11.0242 C   0  0  0  0  0  0  0  0  0  0  0  0
    6.5215  -38.2473   11.6952 C   0  0  0  0  0  0  0  0  0  0  0  0
    7.0773  -39.1716   12.5809 C   0  0  0  0  0  0  0  0  0  0  0  0
    8.4534  -39.1775   12.7937 C   0  0  0  0  0  0  0  0  0  0  0  0
    9.2374  -40.5153   13.8752 Br  0  0  0  0  0  0  0  0  0  0  0  0
    9.2724  -38.2418   12.1645 C   0  0  0  0  0  0  0  0  0  0  0  0
    8.7236  -37.3114   11.2761 C   0  0  0  0  0  0  0  0  0  0  0  0
    9.8306  -36.2215   10.5225 Cl  0  0  0  0  0  0  0  0  0  0  0  0
  1  2  1  0
  2  3  1  0
  3  4  1  0
  4  5  1  0
  5  6  2  0
  5  7  2  0
  5  8  1  0
  8  9  2  0
  9 10  1  0
 10 11  2  0
 11 12  1  0
 11 13  1  0
 13 14  2  0
 14 15  1  0
 14  8  1  0
M  END
>  <inchikey>  (429) 
KUWWZXXLHAKRMN-UHFFFAOYSA-N

>  <tags>  (429) 
fragmenstein_placed,CpKRS_FrAncestor_bulkdock_iter2

>  <ref_pdb>  (429) 
x0602b

>  <energy_score>  (429) 
-37.739037

>  <distance_score>  (429) 
0.332195

>  <HIPPO Pose ID>  (429) 
54974

>  <ref_mols>  (429) 
x0639c

>  <smiles>  (429) 
CCCNS(=O)(=O)c1ccc(Br)cc1Cl

>  <HIPPO Compound ID>  (429) 
450619

>  <alias>  (429) 
KUWWZXXLHAKRMN-UHFFFAOYSA-N-P54

>  <subsites>  (429) 


>  <placement_batch>  (429) 
CpKRS_FrAncestor_bulkdock_iter2

>  <name>  (429) 
KUWWZXXLHAKRMN-UHFFFAOYSA-N-P54

$$$$
BHIRESZFWPZSPA-UHFFFAOYSA-N-P54
     RDKit          3D

 15 15  0  0  0  0  0  0  0  0999 V2000
    7.1443  -38.1651    5.2827 C   0  0  0  0  0  0  0  0  0  0  0  0
    6.9433  -38.0835    6.4642 C   0  0  0  0  0  0  0  0  0  0  0  0
    6.6991  -37.9793    7.9077 C   0  0  0  0  0  0  0  0  0  0  0  0
    7.0650  -36.6462    8.3531 N   0  0  0  0  0  0  0  0  0  0  0  0
    6.5971  -36.1367    9.8646 S   0  0  0  0  0  0  0  0  0  0  0  0
    5.1615  -36.2843    9.9633 O   0  0  0  0  0  0  0  0  0  0  0  0
    7.2265  -34.8594   10.1240 O   0  0  0  0  0  0  0  0  0  0  0  0
    7.3446  -37.3359   10.9619 C   0  0  0  0  0  0  0  0  0  0  0  0
    6.4912  -38.2487   11.6059 C   0  0  0  0  0  0  0  0  0  0  0  0
    7.0133  -39.1989   12.4833 C   0  0  0  0  0  0  0  0  0  0  0  0
    8.3833  -39.2332   12.7203 C   0  0  0  0  0  0  0  0  0  0  0  0
    9.1188  -40.5889   13.8135 Br  0  0  0  0  0  0  0  0  0  0  0  0
    9.2313  -38.3046   12.1153 C   0  0  0  0  0  0  0  0  0  0  0  0
    8.7298  -37.3428   11.2206 C   0  0  0  0  0  0  0  0  0  0  0  0
    9.6976  -36.3582   10.6273 C   0  0  0  0  0  0  0  0  0  0  0  0
  1  2  3  0
  2  3  1  0
  3  4  1  0
  4  5  1  0
  5  6  2  0
  5  7  2  0
  5  8  1  0
  8  9  2  0
  9 10  1  0
 10 11  2  0
 11 12  1  0
 11 13  1  0
 13 14  2  0
 14 15  1  0
 14  8  1  0
M  END
>  <inchikey>  (430) 
BHIRESZFWPZSPA-UHFFFAOYSA-N

>  <tags>  (430) 
fragmenstein_placed,CpKRS_FrAncestor_bulkdock_iter2

>  <ref_pdb>  (430) 
x0602b

>  <energy_score>  (430) 
-34.428284

>  <distance_score>  (430) 
0.334963

>  <HIPPO Pose ID>  (430) 
54977

>  <ref_mols>  (430) 
x0639c

>  <smiles>  (430) 
C#CCNS(=O)(=O)c1ccc(Br)cc1C

>  <HIPPO Compound ID>  (430) 
311451

>  <alias>  (430) 
BHIRESZFWPZSPA-UHFFFAOYSA-N-P54

>  <subsites>  (430) 


>  <placement_batch>  (430) 
CpKRS_FrAncestor_bulkdock_iter2

>  <name>  (430) 
BHIRESZFWPZSPA-UHFFFAOYSA-N-P54

$$$$
BUGXFMLNBLRKIP-UHFFFAOYSA-N-P54
     RDKit          3D

 15 15  0  0  0  0  0  0  0  0999 V2000
    5.3843  -37.2002    5.8856 C   0  0  0  0  0  0  0  0  0  0  0  0
    6.5891  -37.9944    6.3709 C   0  0  0  0  0  0  0  0  0  0  0  0
    6.7232  -37.9877    7.8915 C   0  0  0  0  0  0  0  0  0  0  0  0
    7.0649  -36.6441    8.3529 N   0  0  0  0  0  0  0  0  0  0  0  0
    6.5943  -36.1329    9.8697 S   0  0  0  0  0  0  0  0  0  0  0  0
    7.2264  -34.8563   10.1261 O   0  0  0  0  0  0  0  0  0  0  0  0
    5.1577  -36.2752    9.9662 O   0  0  0  0  0  0  0  0  0  0  0  0
    7.3408  -37.3366   10.9619 C   0  0  0  0  0  0  0  0  0  0  0  0
    6.4869  -38.2555   11.5965 C   0  0  0  0  0  0  0  0  0  0  0  0
    7.0064  -39.2069   12.4739 C   0  0  0  0  0  0  0  0  0  0  0  0
    8.3747  -39.2361   12.7211 C   0  0  0  0  0  0  0  0  0  0  0  0
    9.1066  -40.5921   13.8165 Br  0  0  0  0  0  0  0  0  0  0  0  0
    9.2235  -38.3024   12.1251 C   0  0  0  0  0  0  0  0  0  0  0  0
    8.7243  -37.3404   11.2290 C   0  0  0  0  0  0  0  0  0  0  0  0
    9.6928  -36.3528   10.6419 C   0  0  0  0  0  0  0  0  0  0  0  0
  1  2  1  0
  2  3  1  0
  3  4  1  0
  4  5  1  0
  5  6  2  0
  5  7  2  0
  5  8  1  0
  8  9  2  0
  9 10  1  0
 10 11  2  0
 11 12  1  0
 11 13  1  0
 13 14  2  0
 14 15  1  0
 14  8  1  0
M  END
>  <inchikey>  (431) 
BUGXFMLNBLRKIP-UHFFFAOYSA-N

>  <tags>  (431) 
fragmenstein_placed,CpKRS_FrAncestor_bulkdock_iter2

>  <ref_pdb>  (431) 
x0602b

>  <energy_score>  (431) 
-30.654926

>  <distance_score>  (431) 
0.335065

>  <HIPPO Pose ID>  (431) 
54980

>  <ref_mols>  (431) 
x0639c

>  <smiles>  (431) 
CCCNS(=O)(=O)c1ccc(Br)cc1C

>  <HIPPO Compound ID>  (431) 
450620

>  <alias>  (431) 
BUGXFMLNBLRKIP-UHFFFAOYSA-N-P54

>  <subsites>  (431) 


>  <placement_batch>  (431) 
CpKRS_FrAncestor_bulkdock_iter2

>  <name>  (431) 
BUGXFMLNBLRKIP-UHFFFAOYSA-N-P54

$$$$
XGQOYRDWYZUPEX-UHFFFAOYSA-N-P54
     RDKit          3D

 15 15  0  0  0  0  0  0  0  0999 V2000
    8.9004  -39.2557    7.7167 C   0  0  0  0  0  0  0  0  0  0  0  0
    7.7740  -38.6285    6.9069 C   0  0  0  0  0  0  0  0  0  0  0  0
    6.7171  -37.9641    7.7853 C   0  0  0  0  0  0  0  0  0  0  0  0
    7.2836  -36.7864    8.4398 N   0  0  0  0  0  0  0  0  0  0  0  0
    6.6132  -36.2420    9.8666 S   0  0  0  0  0  0  0  0  0  0  0  0
    5.1889  -36.4957    9.8161 O   0  0  0  0  0  0  0  0  0  0  0  0
    7.1021  -34.9037   10.1190 O   0  0  0  0  0  0  0  0  0  0  0  0
    7.3302  -37.3158   11.0854 C   0  0  0  0  0  0  0  0  0  0  0  0
    6.4643  -38.1857   11.7709 C   0  0  0  0  0  0  0  0  0  0  0  0
    6.9451  -38.9700   12.8144 C   0  0  0  0  0  0  0  0  0  0  0  0
    8.2859  -38.8869   13.1786 C   0  0  0  0  0  0  0  0  0  0  0  0
    9.1544  -38.0272   12.4957 C   0  0  0  0  0  0  0  0  0  0  0  0
   10.9634  -37.9965   13.0929 Br  0  0  0  0  0  0  0  0  0  0  0  0
    8.6866  -37.2313   11.4359 C   0  0  0  0  0  0  0  0  0  0  0  0
    9.7904  -36.1924   10.5912 Cl  0  0  0  0  0  0  0  0  0  0  0  0
  1  2  1  0
  2  3  1  0
  3  4  1  0
  4  5  1  0
  5  6  2  0
  5  7  2  0
  5  8  1  0
  8  9  2  0
  9 10  1  0
 10 11  2  0
 11 12  1  0
 12 13  1  0
 12 14  2  0
 14 15  1  0
 14  8  1  0
M  END
>  <inchikey>  (432) 
XGQOYRDWYZUPEX-UHFFFAOYSA-N

>  <tags>  (432) 
fragmenstein_placed,CpKRS_FrAncestor_bulkdock_iter2

>  <ref_pdb>  (432) 
x0602b

>  <energy_score>  (432) 
-20.954325

>  <distance_score>  (432) 
0.218925

>  <HIPPO Pose ID>  (432) 
54983

>  <ref_mols>  (432) 
x0639c

>  <smiles>  (432) 
CCCNS(=O)(=O)c1cccc(Br)c1Cl

>  <HIPPO Compound ID>  (432) 
450621

>  <alias>  (432) 
XGQOYRDWYZUPEX-UHFFFAOYSA-N-P54

>  <subsites>  (432) 


>  <placement_batch>  (432) 
CpKRS_FrAncestor_bulkdock_iter2

>  <name>  (432) 
XGQOYRDWYZUPEX-UHFFFAOYSA-N-P54

$$$$
NXHJIGNCNHRLEM-UHFFFAOYSA-N-P54
     RDKit          3D

 15 15  0  0  0  0  0  0  0  0999 V2000
    8.1704  -38.9389    5.9104 C   0  0  0  0  0  0  0  0  0  0  0  0
    7.4461  -38.4934    6.7590 C   0  0  0  0  0  0  0  0  0  0  0  0
    6.5650  -37.9467    7.7973 C   0  0  0  0  0  0  0  0  0  0  0  0
    7.2091  -36.7882    8.3945 N   0  0  0  0  0  0  0  0  0  0  0  0
    6.6153  -36.2245    9.8426 S   0  0  0  0  0  0  0  0  0  0  0  0
    7.1766  -34.9108   10.0791 O   0  0  0  0  0  0  0  0  0  0  0  0
    5.1819  -36.4206    9.8456 O   0  0  0  0  0  0  0  0  0  0  0  0
    7.3503  -37.3312   11.0395 C   0  0  0  0  0  0  0  0  0  0  0  0
    6.4723  -38.1867   11.7290 C   0  0  0  0  0  0  0  0  0  0  0  0
    6.9394  -38.9704   12.7773 C   0  0  0  0  0  0  0  0  0  0  0  0
    8.2759  -38.8896   13.1516 C   0  0  0  0  0  0  0  0  0  0  0  0
    9.1568  -38.0438   12.4670 C   0  0  0  0  0  0  0  0  0  0  0  0
   10.9437  -37.9772   13.1255 Br  0  0  0  0  0  0  0  0  0  0  0  0
    8.7233  -37.2646   11.3744 C   0  0  0  0  0  0  0  0  0  0  0  0
    9.6853  -36.3493   10.6635 C   0  0  0  0  0  0  0  0  0  0  0  0
  1  2  3  0
  2  3  1  0
  3  4  1  0
  4  5  1  0
  5  6  2  0
  5  7  2  0
  5  8  1  0
  8  9  2  0
  9 10  1  0
 10 11  2  0
 11 12  1  0
 12 13  1  0
 12 14  2  0
 14 15  1  0
 14  8  1  0
M  END
>  <inchikey>  (433) 
NXHJIGNCNHRLEM-UHFFFAOYSA-N

>  <tags>  (433) 
fragmenstein_placed,CpKRS_FrAncestor_bulkdock_iter2

>  <ref_pdb>  (433) 
x0602b

>  <energy_score>  (433) 
-44.582967

>  <distance_score>  (433) 
0.216361

>  <HIPPO Pose ID>  (433) 
54986

>  <ref_mols>  (433) 
x0639c

>  <smiles>  (433) 
C#CCNS(=O)(=O)c1cccc(Br)c1C

>  <HIPPO Compound ID>  (433) 
311372

>  <alias>  (433) 
NXHJIGNCNHRLEM-UHFFFAOYSA-N-P54

>  <subsites>  (433) 


>  <placement_batch>  (433) 
CpKRS_FrAncestor_bulkdock_iter2

>  <name>  (433) 
NXHJIGNCNHRLEM-UHFFFAOYSA-N-P54

$$$$
YHMROOSAVJNVNK-UHFFFAOYSA-N-P54
     RDKit          3D

 15 15  0  0  0  0  0  0  0  0999 V2000
    5.3991  -37.4001    5.9426 C   0  0  0  0  0  0  0  0  0  0  0  0
    6.6229  -38.1657    6.4264 C   0  0  0  0  0  0  0  0  0  0  0  0
    6.7812  -38.1209    7.9439 C   0  0  0  0  0  0  0  0  0  0  0  0
    7.1118  -36.7639    8.3685 N   0  0  0  0  0  0  0  0  0  0  0  0
    6.6008  -36.1936    9.8481 S   0  0  0  0  0  0  0  0  0  0  0  0
    7.2093  -34.8986   10.0697 O   0  0  0  0  0  0  0  0  0  0  0  0
    5.1634  -36.3472    9.9136 O   0  0  0  0  0  0  0  0  0  0  0  0
    7.3347  -37.3336   11.0192 C   0  0  0  0  0  0  0  0  0  0  0  0
    6.4527  -38.1980   11.6925 C   0  0  0  0  0  0  0  0  0  0  0  0
    6.9122  -38.9960   12.7334 C   0  0  0  0  0  0  0  0  0  0  0  0
    8.2462  -38.9218   13.1174 C   0  0  0  0  0  0  0  0  0  0  0  0
    9.1323  -38.0694   12.4478 C   0  0  0  0  0  0  0  0  0  0  0  0
   10.9160  -38.0165   13.1165 Br  0  0  0  0  0  0  0  0  0  0  0  0
    8.7063  -37.2748   11.3628 C   0  0  0  0  0  0  0  0  0  0  0  0
    9.6736  -36.3512   10.6709 C   0  0  0  0  0  0  0  0  0  0  0  0
  1  2  1  0
  2  3  1  0
  3  4  1  0
  4  5  1  0
  5  6  2  0
  5  7  2  0
  5  8  1  0
  8  9  2  0
  9 10  1  0
 10 11  2  0
 11 12  1  0
 12 13  1  0
 12 14  2  0
 14 15  1  0
 14  8  1  0
M  END
>  <inchikey>  (434) 
YHMROOSAVJNVNK-UHFFFAOYSA-N

>  <tags>  (434) 
fragmenstein_placed,CpKRS_FrAncestor_bulkdock_iter2

>  <ref_pdb>  (434) 
x0602b

>  <energy_score>  (434) 
-41.035666

>  <distance_score>  (434) 
0.191378

>  <HIPPO Pose ID>  (434) 
54989

>  <ref_mols>  (434) 
x0639c

>  <smiles>  (434) 
CCCNS(=O)(=O)c1cccc(Br)c1C

>  <HIPPO Compound ID>  (434) 
450622

>  <alias>  (434) 
YHMROOSAVJNVNK-UHFFFAOYSA-N-P54

>  <subsites>  (434) 


>  <placement_batch>  (434) 
CpKRS_FrAncestor_bulkdock_iter2

>  <name>  (434) 
YHMROOSAVJNVNK-UHFFFAOYSA-N-P54

$$$$
PRCUXORGVNUPPZ-UHFFFAOYSA-N-P54
     RDKit          3D

 14 14  0  0  0  0  0  0  0  0999 V2000
    8.9143  -39.7052    8.2427 C   0  0  0  0  0  0  0  0  0  0  0  0
    7.9850  -38.9638    8.0705 C   0  0  0  0  0  0  0  0  0  0  0  0
    6.8535  -38.0533    7.8740 C   0  0  0  0  0  0  0  0  0  0  0  0
    7.1893  -36.7378    8.3846 N   0  0  0  0  0  0  0  0  0  0  0  0
    6.5507  -36.2110    9.8219 S   0  0  0  0  0  0  0  0  0  0  0  0
    7.0945  -34.9006   10.1095 O   0  0  0  0  0  0  0  0  0  0  0  0
    5.1165  -36.4004    9.7576 O   0  0  0  0  0  0  0  0  0  0  0  0
    7.1956  -37.3409   11.0303 C   0  0  0  0  0  0  0  0  0  0  0  0
    6.2831  -38.1743   11.6993 C   0  0  0  0  0  0  0  0  0  0  0  0
    6.7157  -38.9962   12.7385 C   0  0  0  0  0  0  0  0  0  0  0  0
    8.0545  -38.9883   13.1160 C   0  0  0  0  0  0  0  0  0  0  0  0
    8.9659  -38.1697   12.4481 C   0  0  0  0  0  0  0  0  0  0  0  0
    8.5448  -37.3407   11.4019 C   0  0  0  0  0  0  0  0  0  0  0  0
    9.8904  -36.2892   10.5728 Br  0  0  0  0  0  0  0  0  0  0  0  0
  1  2  3  0
  2  3  1  0
  3  4  1  0
  4  5  1  0
  5  6  2  0
  5  7  2  0
  5  8  1  0
  8  9  2  0
  9 10  1  0
 10 11  2  0
 11 12  1  0
 12 13  2  0
 13 14  1  0
 13  8  1  0
M  END
>  <inchikey>  (435) 
PRCUXORGVNUPPZ-UHFFFAOYSA-N

>  <tags>  (435) 
fragmenstein_placed,CpKRS_FrAncestor_bulkdock_iter2

>  <ref_pdb>  (435) 
x0602b

>  <energy_score>  (435) 
-39.710098

>  <distance_score>  (435) 
0.207085

>  <HIPPO Pose ID>  (435) 
54992

>  <ref_mols>  (435) 
x0639c

>  <smiles>  (435) 
C#CCNS(=O)(=O)c1ccccc1Br

>  <HIPPO Compound ID>  (435) 
450623

>  <alias>  (435) 
PRCUXORGVNUPPZ-UHFFFAOYSA-N-P54

>  <subsites>  (435) 


>  <placement_batch>  (435) 
CpKRS_FrAncestor_bulkdock_iter2

>  <name>  (435) 
PRCUXORGVNUPPZ-UHFFFAOYSA-N-P54

$$$$
PYFAHNNJLVPABD-UHFFFAOYSA-N-P54
     RDKit          3D

 14 14  0  0  0  0  0  0  0  0999 V2000
    8.6055  -38.1065    6.0253 C   0  0  0  0  0  0  0  0  0  0  0  0
    7.1382  -38.2083    6.4190 C   0  0  0  0  0  0  0  0  0  0  0  0
    6.9150  -38.0994    7.9260 C   0  0  0  0  0  0  0  0  0  0  0  0
    7.1884  -36.7335    8.3758 N   0  0  0  0  0  0  0  0  0  0  0  0
    6.5362  -36.2026    9.8223 S   0  0  0  0  0  0  0  0  0  0  0  0
    7.0832  -34.8944   10.1129 O   0  0  0  0  0  0  0  0  0  0  0  0
    5.1032  -36.3971    9.7597 O   0  0  0  0  0  0  0  0  0  0  0  0
    7.1854  -37.3370   11.0256 C   0  0  0  0  0  0  0  0  0  0  0  0
    6.2740  -38.1641   11.7035 C   0  0  0  0  0  0  0  0  0  0  0  0
    6.7111  -38.9864   12.7406 C   0  0  0  0  0  0  0  0  0  0  0  0
    8.0534  -38.9852   13.1064 C   0  0  0  0  0  0  0  0  0  0  0  0
    8.9639  -38.1742   12.4280 C   0  0  0  0  0  0  0  0  0  0  0  0
    8.5381  -37.3453   11.3835 C   0  0  0  0  0  0  0  0  0  0  0  0
    9.8819  -36.3069   10.5353 Br  0  0  0  0  0  0  0  0  0  0  0  0
  1  2  1  0
  2  3  1  0
  3  4  1  0
  4  5  1  0
  5  6  2  0
  5  7  2  0
  5  8  1  0
  8  9  2  0
  9 10  1  0
 10 11  2  0
 11 12  1  0
 12 13  2  0
 13 14  1  0
 13  8  1  0
M  END
>  <inchikey>  (436) 
PYFAHNNJLVPABD-UHFFFAOYSA-N

>  <tags>  (436) 
fragmenstein_placed,CpKRS_FrAncestor_bulkdock_iter2

>  <ref_pdb>  (436) 
x0602b

>  <energy_score>  (436) 
-41.699368

>  <distance_score>  (436) 
0.207808

>  <HIPPO Pose ID>  (436) 
54995

>  <ref_mols>  (436) 
x0639c

>  <smiles>  (436) 
CCCNS(=O)(=O)c1ccccc1Br

>  <HIPPO Compound ID>  (436) 
450624

>  <alias>  (436) 
PYFAHNNJLVPABD-UHFFFAOYSA-N-P54

>  <subsites>  (436) 


>  <placement_batch>  (436) 
CpKRS_FrAncestor_bulkdock_iter2

>  <name>  (436) 
PYFAHNNJLVPABD-UHFFFAOYSA-N-P54

$$$$
PRASWCFOSPPFFV-UHFFFAOYSA-N-P54
     RDKit          3D

 17 17  0  0  0  0  0  0  0  0999 V2000
    7.6228  -39.0607    7.9396 C   0  0  0  0  0  0  0  0  0  0  0  0
    6.5883  -37.9778    7.6674 C   0  0  0  0  0  0  0  0  0  0  0  0
    5.1780  -38.4542    7.9745 C   0  0  0  0  0  0  0  0  0  0  0  0
    6.9765  -36.7258    8.3269 N   0  0  0  0  0  0  0  0  0  0  0  0
    6.5282  -36.2057    9.8401 S   0  0  0  0  0  0  0  0  0  0  0  0
    5.0854  -36.3018    9.9286 O   0  0  0  0  0  0  0  0  0  0  0  0
    7.1360  -34.9160   10.0826 O   0  0  0  0  0  0  0  0  0  0  0  0
    7.2562  -37.3706   10.9924 C   0  0  0  0  0  0  0  0  0  0  0  0
    6.2721  -38.1295   11.6875 C   0  0  0  0  0  0  0  0  0  0  0  0
    6.5931  -38.9987   12.7215 C   0  0  0  0  0  0  0  0  0  0  0  0
    7.9116  -39.1308   13.0899 C   0  0  0  0  0  0  0  0  0  0  0  0
    8.8920  -38.4090   12.4078 C   0  0  0  0  0  0  0  0  0  0  0  0
    8.6272  -37.5002   11.3347 C   0  0  0  0  0  0  0  0  0  0  0  0
    9.9075  -36.8378   10.7482 C   0  0  0  0  0  0  0  0  0  0  0  0
    9.8207  -35.7958    9.6250 C   0  0  0  0  0  0  0  0  0  0  0  0
   10.8183  -37.9615   10.1718 C   0  0  0  0  0  0  0  0  0  0  0  0
   10.6765  -36.1352   11.8997 C   0  0  0  0  0  0  0  0  0  0  0  0
  1  2  1  0
  2  3  1  0
  2  4  1  0
  4  5  1  0
  5  6  2  0
  5  7  2  0
  5  8  1  0
  8  9  2  0
  9 10  1  0
 10 11  2  0
 11 12  1  0
 12 13  2  0
 13 14  1  0
 14 15  1  0
 14 16  1  0
 14 17  1  0
 13  8  1  0
M  END
>  <inchikey>  (437) 
PRASWCFOSPPFFV-UHFFFAOYSA-N

>  <tags>  (437) 
fragmenstein_placed,CpKRS_FrAncestor_bulkdock_iter2

>  <ref_pdb>  (437) 
x0602b

>  <energy_score>  (437) 
-66.844251

>  <distance_score>  (437) 
0.350066

>  <HIPPO Pose ID>  (437) 
54998

>  <ref_mols>  (437) 
x0639c

>  <smiles>  (437) 
CC(C)NS(=O)(=O)c1ccccc1C(C)(C)C

>  <HIPPO Compound ID>  (437) 
450625

>  <alias>  (437) 
PRASWCFOSPPFFV-UHFFFAOYSA-N-P54

>  <subsites>  (437) 


>  <placement_batch>  (437) 
CpKRS_FrAncestor_bulkdock_iter2

>  <name>  (437) 
PRASWCFOSPPFFV-UHFFFAOYSA-N-P54

$$$$
IWVUMHRXMVFKDM-UHFFFAOYSA-N-P54
     RDKit          3D

 17 17  0  0  0  0  0  0  0  0999 V2000
    6.4791  -38.2871    5.2637 C   0  0  0  0  0  0  0  0  0  0  0  0
    6.4245  -38.1874    6.4595 C   0  0  0  0  0  0  0  0  0  0  0  0
    6.3605  -38.0604    7.9204 C   0  0  0  0  0  0  0  0  0  0  0  0
    6.8681  -36.7593    8.3061 N   0  0  0  0  0  0  0  0  0  0  0  0
    6.6032  -36.1897    9.8390 S   0  0  0  0  0  0  0  0  0  0  0  0
    5.1652  -36.1521   10.0187 O   0  0  0  0  0  0  0  0  0  0  0  0
    7.3671  -34.9794   10.0463 O   0  0  0  0  0  0  0  0  0  0  0  0
    7.2633  -37.4552   10.9344 C   0  0  0  0  0  0  0  0  0  0  0  0
    6.2480  -38.1625   11.6324 C   0  0  0  0  0  0  0  0  0  0  0  0
    6.5379  -39.0002   12.7007 C   0  0  0  0  0  0  0  0  0  0  0  0
    7.8473  -39.1261   13.1098 C   0  0  0  0  0  0  0  0  0  0  0  0
    8.8586  -38.4622   12.4130 C   0  0  0  0  0  0  0  0  0  0  0  0
    8.6298  -37.6454   11.2690 C   0  0  0  0  0  0  0  0  0  0  0  0
    9.9053  -37.0652   10.5988 C   0  0  0  0  0  0  0  0  0  0  0  0
   11.0808  -38.0975   10.6301 C   0  0  0  0  0  0  0  0  0  0  0  0
   10.3543  -35.8395   11.3996 C   0  0  0  0  0  0  0  0  0  0  0  0
    9.8127  -36.6918    9.1099 C   0  0  0  0  0  0  0  0  0  0  0  0
  1  2  3  0
  2  3  1  0
  3  4  1  0
  4  5  1  0
  5  6  2  0
  5  7  2  0
  5  8  1  0
  8  9  2  0
  9 10  1  0
 10 11  2  0
 11 12  1  0
 12 13  2  0
 13 14  1  0
 14 15  1  0
 14 16  1  0
 14 17  1  0
 13  8  1  0
M  END
>  <inchikey>  (438) 
IWVUMHRXMVFKDM-UHFFFAOYSA-N

>  <tags>  (438) 
fragmenstein_placed,CpKRS_FrAncestor_bulkdock_iter2

>  <ref_pdb>  (438) 
x0602b

>  <energy_score>  (438) 
-48.924792

>  <distance_score>  (438) 
0.432587

>  <HIPPO Pose ID>  (438) 
55001

>  <ref_mols>  (438) 
x0639c

>  <smiles>  (438) 
C#CCNS(=O)(=O)c1ccccc1C(C)(C)C

>  <HIPPO Compound ID>  (438) 
450626

>  <alias>  (438) 
IWVUMHRXMVFKDM-UHFFFAOYSA-N-P54

>  <subsites>  (438) 


>  <placement_batch>  (438) 
CpKRS_FrAncestor_bulkdock_iter2

>  <name>  (438) 
IWVUMHRXMVFKDM-UHFFFAOYSA-N-P54

$$$$
QUGGQPMQTDYFAE-UHFFFAOYSA-N-P54
     RDKit          3D

 16 16  0  0  0  0  0  0  0  0999 V2000
    7.7966  -39.9716    8.0040 C   0  0  0  0  0  0  0  0  0  0  0  0
    7.3716  -38.8651    7.0483 C   0  0  0  0  0  0  0  0  0  0  0  0
    6.4428  -37.8542    7.7144 C   0  0  0  0  0  0  0  0  0  0  0  0
    7.2246  -36.8280    8.4122 N   0  0  0  0  0  0  0  0  0  0  0  0
    6.6290  -36.1998    9.8446 S   0  0  0  0  0  0  0  0  0  0  0  0
    7.2809  -34.9323   10.0997 O   0  0  0  0  0  0  0  0  0  0  0  0
    5.1839  -36.2743    9.8025 O   0  0  0  0  0  0  0  0  0  0  0  0
    7.2358  -37.3734   11.0474 C   0  0  0  0  0  0  0  0  0  0  0  0
    6.2584  -38.1273   11.7258 C   0  0  0  0  0  0  0  0  0  0  0  0
    6.6217  -39.0102   12.7373 C   0  0  0  0  0  0  0  0  0  0  0  0
    7.9600  -39.1551   13.0708 C   0  0  0  0  0  0  0  0  0  0  0  0
    8.9356  -38.4256   12.3893 C   0  0  0  0  0  0  0  0  0  0  0  0
    8.6061  -37.5056   11.3708 C   0  0  0  0  0  0  0  0  0  0  0  0
    9.7399  -36.7326   10.7038 C   0  0  0  0  0  0  0  0  0  0  0  0
   10.6817  -36.0974   11.7342 C   0  0  0  0  0  0  0  0  0  0  0  0
   10.5431  -37.6230    9.7511 C   0  0  0  0  0  0  0  0  0  0  0  0
  1  2  1  0
  2  3  1  0
  3  4  1  0
  4  5  1  0
  5  6  2  0
  5  7  2  0
  5  8  1  0
  8  9  2  0
  9 10  1  0
 10 11  2  0
 11 12  1  0
 12 13  2  0
 13 14  1  0
 14 15  1  0
 14 16  1  0
 13  8  1  0
M  END
>  <inchikey>  (439) 
QUGGQPMQTDYFAE-UHFFFAOYSA-N

>  <tags>  (439) 
fragmenstein_placed,CpKRS_FrAncestor_bulkdock_iter2

>  <ref_pdb>  (439) 
x0602b

>  <energy_score>  (439) 
-64.888457

>  <distance_score>  (439) 
0.339778

>  <HIPPO Pose ID>  (439) 
55004

>  <ref_mols>  (439) 
x0639c

>  <smiles>  (439) 
CCCNS(=O)(=O)c1ccccc1C(C)C

>  <HIPPO Compound ID>  (439) 
450627

>  <alias>  (439) 
QUGGQPMQTDYFAE-UHFFFAOYSA-N-P54

>  <subsites>  (439) 


>  <placement_batch>  (439) 
CpKRS_FrAncestor_bulkdock_iter2

>  <name>  (439) 
QUGGQPMQTDYFAE-UHFFFAOYSA-N-P54

$$$$
YNWBTKNMKBNKGE-UHFFFAOYSA-N-P54
     RDKit          3D

 16 16  0  0  0  0  0  0  0  0999 V2000
    8.2322  -38.1164    5.8291 C   0  0  0  0  0  0  0  0  0  0  0  0
    6.8284  -38.2113    6.4109 C   0  0  0  0  0  0  0  0  0  0  0  0
    6.8034  -38.0983    7.9337 C   0  0  0  0  0  0  0  0  0  0  0  0
    7.1370  -36.7344    8.3417 N   0  0  0  0  0  0  0  0  0  0  0  0
    6.6034  -36.1577    9.8166 S   0  0  0  0  0  0  0  0  0  0  0  0
    5.1604  -36.2661    9.8407 O   0  0  0  0  0  0  0  0  0  0  0  0
    7.2446  -34.8824   10.0591 O   0  0  0  0  0  0  0  0  0  0  0  0
    7.2671  -37.3299   10.9983 C   0  0  0  0  0  0  0  0  0  0  0  0
    6.3392  -38.1791   11.6293 C   0  0  0  0  0  0  0  0  0  0  0  0
    6.7441  -39.0182   12.6615 C   0  0  0  0  0  0  0  0  0  0  0  0
    8.0694  -39.0053   13.0736 C   0  0  0  0  0  0  0  0  0  0  0  0
    8.9974  -38.1715   12.4436 C   0  0  0  0  0  0  0  0  0  0  0  0
    8.6294  -37.3250   11.3818 C   0  0  0  0  0  0  0  0  0  0  0  0
    9.6541  -36.4028   10.7469 C   0  0  0  0  0  0  0  0  0  0  0  0
   11.1293  -36.8012   10.9000 C   0  0  0  0  0  0  0  0  0  0  0  0
   12.0378  -35.9049   10.0707 C   0  0  0  0  0  0  0  0  0  0  0  0
  1  2  1  0
  2  3  1  0
  3  4  1  0
  4  5  1  0
  5  6  2  0
  5  7  2  0
  5  8  1  0
  8  9  2  0
  9 10  1  0
 10 11  2  0
 11 12  1  0
 12 13  2  0
 13 14  1  0
 14 15  1  0
 15 16  1  0
 13  8  1  0
M  END
>  <inchikey>  (440) 
YNWBTKNMKBNKGE-UHFFFAOYSA-N

>  <tags>  (440) 
fragmenstein_placed,CpKRS_FrAncestor_bulkdock_iter2

>  <ref_pdb>  (440) 
x0602b

>  <energy_score>  (440) 
-47.877848

>  <distance_score>  (440) 
0.206354

>  <HIPPO Pose ID>  (440) 
55007

>  <ref_mols>  (440) 
x0639c

>  <smiles>  (440) 
CCCNS(=O)(=O)c1ccccc1CCC

>  <HIPPO Compound ID>  (440) 
450628

>  <alias>  (440) 
YNWBTKNMKBNKGE-UHFFFAOYSA-N-P54

>  <subsites>  (440) 


>  <placement_batch>  (440) 
CpKRS_FrAncestor_bulkdock_iter2

>  <name>  (440) 
YNWBTKNMKBNKGE-UHFFFAOYSA-N-P54

$$$$
CSSPWGGNXKICCL-UHFFFAOYSA-N-P54
     RDKit          3D

 16 16  0  0  0  0  0  0  0  0999 V2000
    8.7834  -38.8633    6.7184 C   0  0  0  0  0  0  0  0  0  0  0  0
    7.7284  -39.0994    7.7905 C   0  0  0  0  0  0  0  0  0  0  0  0
    6.6687  -38.0022    7.8357 C   0  0  0  0  0  0  0  0  0  0  0  0
    7.2107  -36.7512    8.3749 N   0  0  0  0  0  0  0  0  0  0  0  0
    6.6615  -36.1702    9.8418 S   0  0  0  0  0  0  0  0  0  0  0  0
    7.3485  -34.9371   10.1686 O   0  0  0  0  0  0  0  0  0  0  0  0
    5.2136  -36.2081    9.8304 O   0  0  0  0  0  0  0  0  0  0  0  0
    7.2152  -37.3826   11.0192 C   0  0  0  0  0  0  0  0  0  0  0  0
    6.2463  -38.1455   11.6899 C   0  0  0  0  0  0  0  0  0  0  0  0
    6.6204  -38.9752   12.7451 C   0  0  0  0  0  0  0  0  0  0  0  0
    7.9542  -39.0418   13.1377 C   0  0  0  0  0  0  0  0  0  0  0  0
    8.9231  -38.2930   12.4679 C   0  0  0  0  0  0  0  0  0  0  0  0
    8.5621  -37.4542   11.4033 C   0  0  0  0  0  0  0  0  0  0  0  0
    9.6423  -36.7308   10.6833 C   0  0  0  0  0  0  0  0  0  0  0  0
   10.7724  -36.1493   11.4883 C   0  0  0  0  0  0  0  0  0  0  0  0
    9.6300  -36.6900    9.4554 O   0  0  0  0  0  0  0  0  0  0  0  0
  1  2  1  0
  2  3  1  0
  3  4  1  0
  4  5  1  0
  5  6  2  0
  5  7  2  0
  5  8  1  0
  8  9  2  0
  9 10  1  0
 10 11  2  0
 11 12  1  0
 12 13  2  0
 13 14  1  0
 14 15  1  0
 14 16  2  0
 13  8  1  0
M  END
>  <inchikey>  (441) 
CSSPWGGNXKICCL-UHFFFAOYSA-N

>  <tags>  (441) 
fragmenstein_placed,CpKRS_FrAncestor_bulkdock_iter2

>  <ref_pdb>  (441) 
x0602b

>  <energy_score>  (441) 
-55.575253

>  <distance_score>  (441) 
0.299599

>  <HIPPO Pose ID>  (441) 
55010

>  <ref_mols>  (441) 
x0639c

>  <smiles>  (441) 
CCCNS(=O)(=O)c1ccccc1C(C)=O

>  <HIPPO Compound ID>  (441) 
450629

>  <alias>  (441) 
CSSPWGGNXKICCL-UHFFFAOYSA-N-P54

>  <subsites>  (441) 


>  <placement_batch>  (441) 
CpKRS_FrAncestor_bulkdock_iter2

>  <name>  (441) 
CSSPWGGNXKICCL-UHFFFAOYSA-N-P54

$$$$
NGSGDJSIVFFAIX-UHFFFAOYSA-N-P54
     RDKit          3D

 15 15  0  0  0  0  0  0  0  0999 V2000
    7.6950  -38.4016    5.4169 C   0  0  0  0  0  0  0  0  0  0  0  0
    7.3204  -38.2572    6.5491 C   0  0  0  0  0  0  0  0  0  0  0  0
    6.8645  -38.0763    7.9328 C   0  0  0  0  0  0  0  0  0  0  0  0
    7.1810  -36.7225    8.3602 N   0  0  0  0  0  0  0  0  0  0  0  0
    6.5757  -36.1913    9.8197 S   0  0  0  0  0  0  0  0  0  0  0  0
    7.1206  -34.8778   10.0907 O   0  0  0  0  0  0  0  0  0  0  0  0
    5.1434  -36.4010    9.8061 O   0  0  0  0  0  0  0  0  0  0  0  0
    7.2715  -37.3126   11.0120 C   0  0  0  0  0  0  0  0  0  0  0  0
    6.3974  -38.1484   11.7262 C   0  0  0  0  0  0  0  0  0  0  0  0
    6.8885  -38.9543   12.7513 C   0  0  0  0  0  0  0  0  0  0  0  0
    8.2446  -38.9265   13.0653 C   0  0  0  0  0  0  0  0  0  0  0  0
    9.1162  -38.1043   12.3473 C   0  0  0  0  0  0  0  0  0  0  0  0
    8.6401  -37.2884   11.3141 C   0  0  0  0  0  0  0  0  0  0  0  0
    9.5888  -36.4702   10.6158 C   0  0  0  0  0  0  0  0  0  0  0  0
   10.3863  -35.7930   10.0264 C   0  0  0  0  0  0  0  0  0  0  0  0
  1  2  3  0
  2  3  1  0
  3  4  1  0
  4  5  1  0
  5  6  2  0
  5  7  2  0
  5  8  1  0
  8  9  2  0
  9 10  1  0
 10 11  2  0
 11 12  1  0
 12 13  2  0
 13 14  1  0
 14 15  3  0
 13  8  1  0
M  END
>  <inchikey>  (442) 
NGSGDJSIVFFAIX-UHFFFAOYSA-N

>  <tags>  (442) 
fragmenstein_placed,CpKRS_FrAncestor_bulkdock_iter2

>  <ref_pdb>  (442) 
x0602b

>  <energy_score>  (442) 
-27.749634

>  <distance_score>  (442) 
0.19466

>  <HIPPO Pose ID>  (442) 
55013

>  <ref_mols>  (442) 
x0639c

>  <smiles>  (442) 
C#CCNS(=O)(=O)c1ccccc1C#C

>  <HIPPO Compound ID>  (442) 
311514

>  <alias>  (442) 
NGSGDJSIVFFAIX-UHFFFAOYSA-N-P54

>  <subsites>  (442) 


>  <placement_batch>  (442) 
CpKRS_FrAncestor_bulkdock_iter2

>  <name>  (442) 
NGSGDJSIVFFAIX-UHFFFAOYSA-N-P54

$$$$
FYOOFCILGUPPDF-UHFFFAOYSA-N-P54
     RDKit          3D

 15 15  0  0  0  0  0  0  0  0999 V2000
    7.7901  -39.8551    8.3162 C   0  0  0  0  0  0  0  0  0  0  0  0
    6.4444  -39.1651    8.1586 C   0  0  0  0  0  0  0  0  0  0  0  0
    6.5478  -37.7670    7.5639 C   0  0  0  0  0  0  0  0  0  0  0  0
    7.2747  -36.8037    8.4043 N   0  0  0  0  0  0  0  0  0  0  0  0
    6.5784  -36.2548    9.8309 S   0  0  0  0  0  0  0  0  0  0  0  0
    7.0770  -34.9169   10.0755 O   0  0  0  0  0  0  0  0  0  0  0  0
    5.1534  -36.4993    9.7744 O   0  0  0  0  0  0  0  0  0  0  0  0
    7.3040  -37.3183   11.0662 C   0  0  0  0  0  0  0  0  0  0  0  0
    6.4235  -38.1543   11.7780 C   0  0  0  0  0  0  0  0  0  0  0  0
    6.8928  -38.9534   12.8163 C   0  0  0  0  0  0  0  0  0  0  0  0
    8.2389  -38.9183   13.1549 C   0  0  0  0  0  0  0  0  0  0  0  0
    9.1174  -38.0907   12.4541 C   0  0  0  0  0  0  0  0  0  0  0  0
    8.6744  -37.2706   11.3976 C   0  0  0  0  0  0  0  0  0  0  0  0
    9.7152  -36.4082   10.7191 C   0  0  0  0  0  0  0  0  0  0  0  0
   10.6162  -37.2021    9.7825 C   0  0  0  0  0  0  0  0  0  0  0  0
  1  2  1  0
  2  3  1  0
  3  4  1  0
  4  5  1  0
  5  6  2  0
  5  7  2  0
  5  8  1  0
  8  9  2  0
  9 10  1  0
 10 11  2  0
 11 12  1  0
 12 13  2  0
 13 14  1  0
 14 15  1  0
 13  8  1  0
M  END
>  <inchikey>  (443) 
FYOOFCILGUPPDF-UHFFFAOYSA-N

>  <tags>  (443) 
fragmenstein_placed,CpKRS_FrAncestor_bulkdock_iter2

>  <ref_pdb>  (443) 
x0602b

>  <energy_score>  (443) 
-39.156654

>  <distance_score>  (443) 
0.264866

>  <HIPPO Pose ID>  (443) 
55016

>  <ref_mols>  (443) 
x0639c

>  <smiles>  (443) 
CCCNS(=O)(=O)c1ccccc1CC

>  <HIPPO Compound ID>  (443) 
450630

>  <alias>  (443) 
FYOOFCILGUPPDF-UHFFFAOYSA-N-P54

>  <subsites>  (443) 


>  <placement_batch>  (443) 
CpKRS_FrAncestor_bulkdock_iter2

>  <name>  (443) 
FYOOFCILGUPPDF-UHFFFAOYSA-N-P54

$$$$
XIRJSSJQACNCAE-UHFFFAOYSA-N-P54
     RDKit          3D

 17 17  0  0  0  0  0  0  0  0999 V2000
    8.5978  -39.9232    8.4068 C   0  0  0  0  0  0  0  0  0  0  0  0
    7.7447  -39.1120    8.1682 C   0  0  0  0  0  0  0  0  0  0  0  0
    6.7058  -38.1162    7.8888 C   0  0  0  0  0  0  0  0  0  0  0  0
    7.1296  -36.8111    8.3646 N   0  0  0  0  0  0  0  0  0  0  0  0
    6.5688  -36.2290    9.8125 S   0  0  0  0  0  0  0  0  0  0  0  0
    7.2091  -34.9607   10.0797 O   0  0  0  0  0  0  0  0  0  0  0  0
    5.1265  -36.3375    9.8133 O   0  0  0  0  0  0  0  0  0  0  0  0
    7.2055  -37.3842   11.0158 C   0  0  0  0  0  0  0  0  0  0  0  0
    6.2824  -38.2100   11.6780 C   0  0  0  0  0  0  0  0  0  0  0  0
    6.7041  -39.0342   12.7181 C   0  0  0  0  0  0  0  0  0  0  0  0
    8.0395  -39.0324   13.1053 C   0  0  0  0  0  0  0  0  0  0  0  0
    8.9608  -38.2188   12.4447 C   0  0  0  0  0  0  0  0  0  0  0  0
    8.5662  -37.3841   11.3820 C   0  0  0  0  0  0  0  0  0  0  0  0
    9.6067  -36.5057   10.7327 C   0  0  0  0  0  0  0  0  0  0  0  0
   10.8786  -36.9646   10.9273 F   0  0  0  0  0  0  0  0  0  0  0  0
    9.4814  -36.4063    9.3800 F   0  0  0  0  0  0  0  0  0  0  0  0
    9.6066  -35.2393   11.2199 F   0  0  0  0  0  0  0  0  0  0  0  0
  1  2  3  0
  2  3  1  0
  3  4  1  0
  4  5  1  0
  5  6  2  0
  5  7  2  0
  5  8  1  0
  8  9  2  0
  9 10  1  0
 10 11  2  0
 11 12  1  0
 12 13  2  0
 13 14  1  0
 14 15  1  0
 14 16  1  0
 14 17  1  0
 13  8  1  0
M  END
>  <inchikey>  (444) 
XIRJSSJQACNCAE-UHFFFAOYSA-N

>  <tags>  (444) 
fragmenstein_placed,CpKRS_FrAncestor_bulkdock_iter2

>  <ref_pdb>  (444) 
x0602b

>  <energy_score>  (444) 
-42.941832

>  <distance_score>  (444) 
0.235034

>  <HIPPO Pose ID>  (444) 
55019

>  <ref_mols>  (444) 
x0639c

>  <smiles>  (444) 
C#CCNS(=O)(=O)c1ccccc1C(F)(F)F

>  <HIPPO Compound ID>  (444) 
450631

>  <alias>  (444) 
XIRJSSJQACNCAE-UHFFFAOYSA-N-P54

>  <subsites>  (444) 


>  <placement_batch>  (444) 
CpKRS_FrAncestor_bulkdock_iter2

>  <name>  (444) 
XIRJSSJQACNCAE-UHFFFAOYSA-N-P54

$$$$
PVGVYNXWQFJCQY-UHFFFAOYSA-N-P54
     RDKit          3D

 14 14  0  0  0  0  0  0  0  0999 V2000
    5.9741  -37.6672    6.5609 C   0  0  0  0  0  0  0  0  0  0  0  0
    6.8093  -37.9982    7.7911 C   0  0  0  0  0  0  0  0  0  0  0  0
    8.0441  -38.8089    7.4157 C   0  0  0  0  0  0  0  0  0  0  0  0
    7.2462  -36.7518    8.4160 N   0  0  0  0  0  0  0  0  0  0  0  0
    6.5764  -36.2152    9.8388 S   0  0  0  0  0  0  0  0  0  0  0  0
    5.1457  -36.4230    9.7647 O   0  0  0  0  0  0  0  0  0  0  0  0
    7.1063  -34.8980   10.1203 O   0  0  0  0  0  0  0  0  0  0  0  0
    7.2338  -37.3314   11.0476 C   0  0  0  0  0  0  0  0  0  0  0  0
    6.3393  -38.1813   11.7190 C   0  0  0  0  0  0  0  0  0  0  0  0
    6.7941  -38.9964   12.7540 C   0  0  0  0  0  0  0  0  0  0  0  0
    8.1360  -38.9645   13.1220 C   0  0  0  0  0  0  0  0  0  0  0  0
    9.0275  -38.1273   12.4492 C   0  0  0  0  0  0  0  0  0  0  0  0
    8.5836  -37.3046   11.4086 C   0  0  0  0  0  0  0  0  0  0  0  0
    9.7712  -36.3129   10.6411 Cl  0  0  0  0  0  0  0  0  0  0  0  0
  1  2  1  0
  2  3  1  0
  2  4  1  0
  4  5  1  0
  5  6  2  0
  5  7  2  0
  5  8  1  0
  8  9  2  0
  9 10  1  0
 10 11  2  0
 11 12  1  0
 12 13  2  0
 13 14  1  0
 13  8  1  0
M  END
>  <inchikey>  (445) 
PVGVYNXWQFJCQY-UHFFFAOYSA-N

>  <tags>  (445) 
fragmenstein_placed,CpKRS_FrAncestor_bulkdock_iter2

>  <ref_pdb>  (445) 
x0602b

>  <energy_score>  (445) 
-53.098721

>  <distance_score>  (445) 
0.201379

>  <HIPPO Pose ID>  (445) 
55022

>  <ref_mols>  (445) 
x0639c

>  <smiles>  (445) 
CC(C)NS(=O)(=O)c1ccccc1Cl

>  <HIPPO Compound ID>  (445) 
450632

>  <alias>  (445) 
PVGVYNXWQFJCQY-UHFFFAOYSA-N-P54

>  <subsites>  (445) 


>  <placement_batch>  (445) 
CpKRS_FrAncestor_bulkdock_iter2

>  <name>  (445) 
PVGVYNXWQFJCQY-UHFFFAOYSA-N-P54

$$$$
QRABNUVCCKFRFC-UHFFFAOYSA-N-P54
     RDKit          3D

 14 14  0  0  0  0  0  0  0  0999 V2000
    7.2600  -39.7886    6.1347 C   0  0  0  0  0  0  0  0  0  0  0  0
    7.7851  -38.5639    6.8655 C   0  0  0  0  0  0  0  0  0  0  0  0
    6.7117  -37.9361    7.7493 C   0  0  0  0  0  0  0  0  0  0  0  0
    7.2772  -36.7683    8.4207 N   0  0  0  0  0  0  0  0  0  0  0  0
    6.5868  -36.2278    9.8405 S   0  0  0  0  0  0  0  0  0  0  0  0
    5.1581  -36.4442    9.7513 O   0  0  0  0  0  0  0  0  0  0  0  0
    7.1055  -34.9053   10.1186 O   0  0  0  0  0  0  0  0  0  0  0  0
    7.2454  -37.3337   11.0566 C   0  0  0  0  0  0  0  0  0  0  0  0
    6.3525  -38.1892   11.7235 C   0  0  0  0  0  0  0  0  0  0  0  0
    6.8067  -39.0013   12.7611 C   0  0  0  0  0  0  0  0  0  0  0  0
    8.1464  -38.9611   13.1359 C   0  0  0  0  0  0  0  0  0  0  0  0
    9.0360  -38.1176   12.4684 C   0  0  0  0  0  0  0  0  0  0  0  0
    8.5928  -37.2976   11.4253 C   0  0  0  0  0  0  0  0  0  0  0  0
    9.7779  -36.2949   10.6686 Cl  0  0  0  0  0  0  0  0  0  0  0  0
  1  2  1  0
  2  3  1  0
  3  4  1  0
  4  5  1  0
  5  6  2  0
  5  7  2  0
  5  8  1  0
  8  9  2  0
  9 10  1  0
 10 11  2  0
 11 12  1  0
 12 13  2  0
 13 14  1  0
 13  8  1  0
M  END
>  <inchikey>  (446) 
QRABNUVCCKFRFC-UHFFFAOYSA-N

>  <tags>  (446) 
fragmenstein_placed,CpKRS_FrAncestor_bulkdock_iter2

>  <ref_pdb>  (446) 
x0602b

>  <energy_score>  (446) 
-48.213647

>  <distance_score>  (446) 
0.212794

>  <HIPPO Pose ID>  (446) 
55025

>  <ref_mols>  (446) 
x0639c

>  <smiles>  (446) 
CCCNS(=O)(=O)c1ccccc1Cl

>  <HIPPO Compound ID>  (446) 
450633

>  <alias>  (446) 
QRABNUVCCKFRFC-UHFFFAOYSA-N-P54

>  <subsites>  (446) 


>  <placement_batch>  (446) 
CpKRS_FrAncestor_bulkdock_iter2

>  <name>  (446) 
QRABNUVCCKFRFC-UHFFFAOYSA-N-P54

$$$$
YHMMNVIXSYSYBM-UHFFFAOYSA-N-P54
     RDKit          3D

 15 15  0  0  0  0  0  0  0  0999 V2000
    5.4890  -38.8034    5.8207 C   0  0  0  0  0  0  0  0  0  0  0  0
    5.9885  -37.5752    6.5635 C   0  0  0  0  0  0  0  0  0  0  0  0
    6.8400  -37.9591    7.7681 C   0  0  0  0  0  0  0  0  0  0  0  0
    7.3154  -36.7525    8.4358 N   0  0  0  0  0  0  0  0  0  0  0  0
    6.6084  -36.2115    9.8372 S   0  0  0  0  0  0  0  0  0  0  0  0
    7.1616  -34.9128   10.1527 O   0  0  0  0  0  0  0  0  0  0  0  0
    5.1785  -36.4018    9.7363 O   0  0  0  0  0  0  0  0  0  0  0  0
    7.2335  -37.3444   11.0546 C   0  0  0  0  0  0  0  0  0  0  0  0
    6.3266  -38.1906   11.7103 C   0  0  0  0  0  0  0  0  0  0  0  0
    6.7689  -39.0076   12.7488 C   0  0  0  0  0  0  0  0  0  0  0  0
    8.1071  -38.9795   13.1340 C   0  0  0  0  0  0  0  0  0  0  0  0
    9.0112  -38.1429   12.4761 C   0  0  0  0  0  0  0  0  0  0  0  0
    8.5838  -37.3152   11.4292 C   0  0  0  0  0  0  0  0  0  0  0  0
    9.5539  -36.4766   10.7855 C   0  0  0  0  0  0  0  0  0  0  0  0
   10.3560  -35.8232   10.2598 N   0  0  0  0  0  0  0  0  0  0  0  0
  1  2  1  0
  2  3  1  0
  3  4  1  0
  4  5  1  0
  5  6  2  0
  5  7  2  0
  5  8  1  0
  8  9  2  0
  9 10  1  0
 10 11  2  0
 11 12  1  0
 12 13  2  0
 13 14  1  0
 14 15  3  0
 13  8  1  0
M  END
>  <inchikey>  (447) 
YHMMNVIXSYSYBM-UHFFFAOYSA-N

>  <tags>  (447) 
fragmenstein_placed,CpKRS_FrAncestor_bulkdock_iter2

>  <ref_pdb>  (447) 
x0602b

>  <energy_score>  (447) 
-29.691301

>  <distance_score>  (447) 
0.245456

>  <HIPPO Pose ID>  (447) 
55028

>  <ref_mols>  (447) 
x0639c

>  <smiles>  (447) 
CCCNS(=O)(=O)c1ccccc1C#N

>  <HIPPO Compound ID>  (447) 
450634

>  <alias>  (447) 
YHMMNVIXSYSYBM-UHFFFAOYSA-N-P54

>  <subsites>  (447) 


>  <placement_batch>  (447) 
CpKRS_FrAncestor_bulkdock_iter2

>  <name>  (447) 
YHMMNVIXSYSYBM-UHFFFAOYSA-N-P54

$$$$
HOGLXQQORUHVME-UHFFFAOYSA-N-P54
     RDKit          3D

 16 16  0  0  0  0  0  0  0  0999 V2000
    6.7113  -39.6512    5.9457 C   0  0  0  0  0  0  0  0  0  0  0  0
    7.1846  -38.3082    6.4765 C   0  0  0  0  0  0  0  0  0  0  0  0
    6.7010  -38.0685    7.9047 C   0  0  0  0  0  0  0  0  0  0  0  0
    7.1949  -36.7565    8.3527 N   0  0  0  0  0  0  0  0  0  0  0  0
    6.6071  -36.1710    9.8174 S   0  0  0  0  0  0  0  0  0  0  0  0
    5.1649  -36.2988    9.8139 O   0  0  0  0  0  0  0  0  0  0  0  0
    7.2238  -34.8898   10.0962 O   0  0  0  0  0  0  0  0  0  0  0  0
    7.2589  -37.3355   11.0086 C   0  0  0  0  0  0  0  0  0  0  0  0
    6.3420  -38.1910   11.6428 C   0  0  0  0  0  0  0  0  0  0  0  0
    6.7650  -39.0351   12.6657 C   0  0  0  0  0  0  0  0  0  0  0  0
    8.0979  -39.0270   13.0600 C   0  0  0  0  0  0  0  0  0  0  0  0
    9.0142  -38.1855   12.4258 C   0  0  0  0  0  0  0  0  0  0  0  0
    8.6180  -37.3244   11.3862 C   0  0  0  0  0  0  0  0  0  0  0  0
    9.6565  -36.4021   10.7951 C   0  0  0  0  0  0  0  0  0  0  0  0
    9.7016  -36.5535    9.3752 O   0  0  0  0  0  0  0  0  0  0  0  0
   10.5906  -35.6004    8.7933 C   0  0  0  0  0  0  0  0  0  0  0  0
  1  2  1  0
  2  3  1  0
  3  4  1  0
  4  5  1  0
  5  6  2  0
  5  7  2  0
  5  8  1  0
  8  9  2  0
  9 10  1  0
 10 11  2  0
 11 12  1  0
 12 13  2  0
 13 14  1  0
 14 15  1  0
 15 16  1  0
 13  8  1  0
M  END
>  <inchikey>  (448) 
HOGLXQQORUHVME-UHFFFAOYSA-N

>  <tags>  (448) 
fragmenstein_placed,CpKRS_FrAncestor_bulkdock_iter2

>  <ref_pdb>  (448) 
x0602b

>  <energy_score>  (448) 
-39.100161

>  <distance_score>  (448) 
0.214711

>  <HIPPO Pose ID>  (448) 
55031

>  <ref_mols>  (448) 
x0639c

>  <smiles>  (448) 
CCCNS(=O)(=O)c1ccccc1COC

>  <HIPPO Compound ID>  (448) 
450635

>  <alias>  (448) 
HOGLXQQORUHVME-UHFFFAOYSA-N-P54

>  <subsites>  (448) 


>  <placement_batch>  (448) 
CpKRS_FrAncestor_bulkdock_iter2

>  <name>  (448) 
HOGLXQQORUHVME-UHFFFAOYSA-N-P54

$$$$
SRZBPMSZSZINDT-UHFFFAOYSA-N-P54
     RDKit          3D

 14 14  0  0  0  0  0  0  0  0999 V2000
    8.2168  -38.9108    5.8986 C   0  0  0  0  0  0  0  0  0  0  0  0
    7.4818  -38.4668    6.7387 C   0  0  0  0  0  0  0  0  0  0  0  0
    6.5870  -37.9218    7.7665 C   0  0  0  0  0  0  0  0  0  0  0  0
    7.2277  -36.7719    8.3828 N   0  0  0  0  0  0  0  0  0  0  0  0
    6.6007  -36.2056    9.8162 S   0  0  0  0  0  0  0  0  0  0  0  0
    7.1850  -34.9059   10.0738 O   0  0  0  0  0  0  0  0  0  0  0  0
    5.1637  -36.3688    9.7708 O   0  0  0  0  0  0  0  0  0  0  0  0
    7.2690  -37.3363   11.0227 C   0  0  0  0  0  0  0  0  0  0  0  0
    6.3637  -38.1776   11.6910 C   0  0  0  0  0  0  0  0  0  0  0  0
    6.8055  -38.9989   12.7248 C   0  0  0  0  0  0  0  0  0  0  0  0
    8.1450  -38.9788   13.0972 C   0  0  0  0  0  0  0  0  0  0  0  0
    9.0490  -38.1502   12.4297 C   0  0  0  0  0  0  0  0  0  0  0  0
    8.6327  -37.3209   11.3754 C   0  0  0  0  0  0  0  0  0  0  0  0
    9.6513  -36.4210   10.7340 C   0  0  0  0  0  0  0  0  0  0  0  0
  1  2  3  0
  2  3  1  0
  3  4  1  0
  4  5  1  0
  5  6  2  0
  5  7  2  0
  5  8  1  0
  8  9  2  0
  9 10  1  0
 10 11  2  0
 11 12  1  0
 12 13  2  0
 13 14  1  0
 13  8  1  0
M  END
>  <inchikey>  (449) 
SRZBPMSZSZINDT-UHFFFAOYSA-N

>  <tags>  (449) 
fragmenstein_placed,CpKRS_FrAncestor_bulkdock_iter2

>  <ref_pdb>  (449) 
x0602b

>  <energy_score>  (449) 
-18.906362

>  <distance_score>  (449) 
0.218984

>  <HIPPO Pose ID>  (449) 
55034

>  <ref_mols>  (449) 
x0639c

>  <smiles>  (449) 
C#CCNS(=O)(=O)c1ccccc1C

>  <HIPPO Compound ID>  (449) 
450636

>  <alias>  (449) 
SRZBPMSZSZINDT-UHFFFAOYSA-N-P54

>  <subsites>  (449) 


>  <placement_batch>  (449) 
CpKRS_FrAncestor_bulkdock_iter2

>  <name>  (449) 
SRZBPMSZSZINDT-UHFFFAOYSA-N-P54

$$$$
IALXHPHVSYQWCY-UHFFFAOYSA-N-P54
     RDKit          3D

 14 14  0  0  0  0  0  0  0  0999 V2000
    6.4981  -39.5775    5.9122 C   0  0  0  0  0  0  0  0  0  0  0  0
    6.8338  -38.1802    6.4072 C   0  0  0  0  0  0  0  0  0  0  0  0
    6.7913  -38.1007    7.9303 C   0  0  0  0  0  0  0  0  0  0  0  0
    7.1291  -36.7397    8.3429 N   0  0  0  0  0  0  0  0  0  0  0  0
    6.5914  -36.1629    9.8155 S   0  0  0  0  0  0  0  0  0  0  0  0
    7.2329  -34.8875   10.0578 O   0  0  0  0  0  0  0  0  0  0  0  0
    5.1488  -36.2746    9.8393 O   0  0  0  0  0  0  0  0  0  0  0  0
    7.2554  -37.3304   10.9945 C   0  0  0  0  0  0  0  0  0  0  0  0
    6.3444  -38.1836   11.6400 C   0  0  0  0  0  0  0  0  0  0  0  0
    6.7752  -39.0207   12.6660 C   0  0  0  0  0  0  0  0  0  0  0  0
    8.1100  -39.0049   13.0546 C   0  0  0  0  0  0  0  0  0  0  0  0
    9.0204  -38.1665   12.4089 C   0  0  0  0  0  0  0  0  0  0  0  0
    8.6156  -37.3213   11.3622 C   0  0  0  0  0  0  0  0  0  0  0  0
    9.6433  -36.4099   10.7532 C   0  0  0  0  0  0  0  0  0  0  0  0
  1  2  1  0
  2  3  1  0
  3  4  1  0
  4  5  1  0
  5  6  2  0
  5  7  2  0
  5  8  1  0
  8  9  2  0
  9 10  1  0
 10 11  2  0
 11 12  1  0
 12 13  2  0
 13 14  1  0
 13  8  1  0
M  END
>  <inchikey>  (450) 
IALXHPHVSYQWCY-UHFFFAOYSA-N

>  <tags>  (450) 
fragmenstein_placed,CpKRS_FrAncestor_bulkdock_iter2

>  <ref_pdb>  (450) 
x0602b

>  <energy_score>  (450) 
-43.74963

>  <distance_score>  (450) 
0.202042

>  <HIPPO Pose ID>  (450) 
55037

>  <ref_mols>  (450) 
x0639c

>  <smiles>  (450) 
CCCNS(=O)(=O)c1ccccc1C

>  <HIPPO Compound ID>  (450) 
450637

>  <alias>  (450) 
IALXHPHVSYQWCY-UHFFFAOYSA-N-P54

>  <subsites>  (450) 


>  <placement_batch>  (450) 
CpKRS_FrAncestor_bulkdock_iter2

>  <name>  (450) 
IALXHPHVSYQWCY-UHFFFAOYSA-N-P54

$$$$
MJQUGQKMTYLICQ-UHFFFAOYSA-N-P54
     RDKit          3D

 14 14  0  0  0  0  0  0  0  0999 V2000
    5.8951  -37.6263    6.5967 C   0  0  0  0  0  0  0  0  0  0  0  0
    6.7688  -37.9855    7.7919 C   0  0  0  0  0  0  0  0  0  0  0  0
    7.9713  -38.8179    7.3630 C   0  0  0  0  0  0  0  0  0  0  0  0
    7.2552  -36.7545    8.4111 N   0  0  0  0  0  0  0  0  0  0  0  0
    6.6238  -36.1991    9.8448 S   0  0  0  0  0  0  0  0  0  0  0  0
    7.1921  -34.8939   10.1091 O   0  0  0  0  0  0  0  0  0  0  0  0
    5.1880  -36.3792    9.8070 O   0  0  0  0  0  0  0  0  0  0  0  0
    7.2826  -37.3151   11.0367 C   0  0  0  0  0  0  0  0  0  0  0  0
    6.4352  -38.1883   11.7285 C   0  0  0  0  0  0  0  0  0  0  0  0
    6.9554  -38.9764   12.7550 C   0  0  0  0  0  0  0  0  0  0  0  0
    8.3089  -38.8885   13.0859 C   0  0  0  0  0  0  0  0  0  0  0  0
    9.1487  -38.0207   12.3859 C   0  0  0  0  0  0  0  0  0  0  0  0
    8.6313  -37.2324   11.3633 C   0  0  0  0  0  0  0  0  0  0  0  0
    9.4557  -36.3950   10.7165 F   0  0  0  0  0  0  0  0  0  0  0  0
  1  2  1  0
  2  3  1  0
  2  4  1  0
  4  5  1  0
  5  6  2  0
  5  7  2  0
  5  8  1  0
  8  9  2  0
  9 10  1  0
 10 11  2  0
 11 12  1  0
 12 13  2  0
 13 14  1  0
 13  8  1  0
M  END
>  <inchikey>  (451) 
MJQUGQKMTYLICQ-UHFFFAOYSA-N

>  <tags>  (451) 
fragmenstein_placed,CpKRS_FrAncestor_bulkdock_iter2

>  <ref_pdb>  (451) 
x0602b

>  <energy_score>  (451) 
-49.930467

>  <distance_score>  (451) 
0.21842

>  <HIPPO Pose ID>  (451) 
55040

>  <ref_mols>  (451) 
x0639c

>  <smiles>  (451) 
CC(C)NS(=O)(=O)c1ccccc1F

>  <HIPPO Compound ID>  (451) 
450638

>  <alias>  (451) 
MJQUGQKMTYLICQ-UHFFFAOYSA-N-P54

>  <subsites>  (451) 


>  <placement_batch>  (451) 
CpKRS_FrAncestor_bulkdock_iter2

>  <name>  (451) 
MJQUGQKMTYLICQ-UHFFFAOYSA-N-P54

$$$$
JLKZLFMOUKZTBD-UHFFFAOYSA-N-P54
     RDKit          3D

 14 14  0  0  0  0  0  0  0  0999 V2000
    7.7807  -38.3916    5.4352 C   0  0  0  0  0  0  0  0  0  0  0  0
    7.3770  -38.2455    6.5572 C   0  0  0  0  0  0  0  0  0  0  0  0
    6.8861  -38.0622    7.9283 C   0  0  0  0  0  0  0  0  0  0  0  0
    7.2374  -36.7254    8.3813 N   0  0  0  0  0  0  0  0  0  0  0  0
    6.6159  -36.1889    9.8308 S   0  0  0  0  0  0  0  0  0  0  0  0
    7.1841  -34.8885   10.1156 O   0  0  0  0  0  0  0  0  0  0  0  0
    5.1810  -36.3752    9.7997 O   0  0  0  0  0  0  0  0  0  0  0  0
    7.2677  -37.3154   11.0197 C   0  0  0  0  0  0  0  0  0  0  0  0
    6.4153  -38.1710   11.7266 C   0  0  0  0  0  0  0  0  0  0  0  0
    6.9372  -38.9608   12.7511 C   0  0  0  0  0  0  0  0  0  0  0  0
    8.2961  -38.8915   13.0649 C   0  0  0  0  0  0  0  0  0  0  0  0
    9.1407  -38.0415   12.3490 C   0  0  0  0  0  0  0  0  0  0  0  0
    8.6218  -37.2521   11.3285 C   0  0  0  0  0  0  0  0  0  0  0  0
    9.4489  -36.4369   10.6576 F   0  0  0  0  0  0  0  0  0  0  0  0
  1  2  3  0
  2  3  1  0
  3  4  1  0
  4  5  1  0
  5  6  2  0
  5  7  2  0
  5  8  1  0
  8  9  2  0
  9 10  1  0
 10 11  2  0
 11 12  1  0
 12 13  2  0
 13 14  1  0
 13  8  1  0
M  END
>  <inchikey>  (452) 
JLKZLFMOUKZTBD-UHFFFAOYSA-N

>  <tags>  (452) 
fragmenstein_placed,CpKRS_FrAncestor_bulkdock_iter2

>  <ref_pdb>  (452) 
x0602b

>  <energy_score>  (452) 
-27.249712

>  <distance_score>  (452) 
0.210649

>  <HIPPO Pose ID>  (452) 
55043

>  <ref_mols>  (452) 
x0639c

>  <smiles>  (452) 
C#CCNS(=O)(=O)c1ccccc1F

>  <HIPPO Compound ID>  (452) 
450639

>  <alias>  (452) 
JLKZLFMOUKZTBD-UHFFFAOYSA-N-P54

>  <subsites>  (452) 


>  <placement_batch>  (452) 
CpKRS_FrAncestor_bulkdock_iter2

>  <name>  (452) 
JLKZLFMOUKZTBD-UHFFFAOYSA-N-P54

$$$$
LVTLGYOTDDMIHD-UHFFFAOYSA-N-P54
     RDKit          3D

 14 14  0  0  0  0  0  0  0  0999 V2000
    8.5148  -38.0931    5.9545 C   0  0  0  0  0  0  0  0  0  0  0  0
    7.0662  -38.1831    6.4143 C   0  0  0  0  0  0  0  0  0  0  0  0
    6.9123  -38.0831    7.9307 C   0  0  0  0  0  0  0  0  0  0  0  0
    7.2242  -36.7245    8.3778 N   0  0  0  0  0  0  0  0  0  0  0  0
    6.6106  -36.1815    9.8368 S   0  0  0  0  0  0  0  0  0  0  0  0
    5.1737  -36.3546    9.8130 O   0  0  0  0  0  0  0  0  0  0  0  0
    7.1910  -34.8844   10.1133 O   0  0  0  0  0  0  0  0  0  0  0  0
    7.2639  -37.3147   11.0177 C   0  0  0  0  0  0  0  0  0  0  0  0
    6.4119  -38.1748   11.7194 C   0  0  0  0  0  0  0  0  0  0  0  0
    6.9328  -38.9679   12.7419 C   0  0  0  0  0  0  0  0  0  0  0  0
    8.2909  -38.8976   13.0587 C   0  0  0  0  0  0  0  0  0  0  0  0
    9.1355  -38.0438   12.3472 C   0  0  0  0  0  0  0  0  0  0  0  0
    8.6173  -37.2511   11.3286 C   0  0  0  0  0  0  0  0  0  0  0  0
    9.4453  -36.4319   10.6634 F   0  0  0  0  0  0  0  0  0  0  0  0
  1  2  1  0
  2  3  1  0
  3  4  1  0
  4  5  1  0
  5  6  2  0
  5  7  2  0
  5  8  1  0
  8  9  2  0
  9 10  1  0
 10 11  2  0
 11 12  1  0
 12 13  2  0
 13 14  1  0
 13  8  1  0
M  END
>  <inchikey>  (453) 
LVTLGYOTDDMIHD-UHFFFAOYSA-N

>  <tags>  (453) 
fragmenstein_placed,CpKRS_FrAncestor_bulkdock_iter2

>  <ref_pdb>  (453) 
x0602b

>  <energy_score>  (453) 
-34.558607

>  <distance_score>  (453) 
0.210068

>  <HIPPO Pose ID>  (453) 
55046

>  <ref_mols>  (453) 
x0639c

>  <smiles>  (453) 
CCCNS(=O)(=O)c1ccccc1F

>  <HIPPO Compound ID>  (453) 
450640

>  <alias>  (453) 
LVTLGYOTDDMIHD-UHFFFAOYSA-N-P54

>  <subsites>  (453) 


>  <placement_batch>  (453) 
CpKRS_FrAncestor_bulkdock_iter2

>  <name>  (453) 
LVTLGYOTDDMIHD-UHFFFAOYSA-N-P54

$$$$
YSKYXGWQIMWPMT-UHFFFAOYSA-N-P54
     RDKit          3D

 14 14  0  0  0  0  0  0  0  0999 V2000
    7.5277  -38.4214    5.4620 C   0  0  0  0  0  0  0  0  0  0  0  0
    7.6542  -38.4538    6.7955 C   0  0  0  0  0  0  0  0  0  0  0  0
    6.6521  -37.9024    7.7600 C   0  0  0  0  0  0  0  0  0  0  0  0
    7.2903  -36.7770    8.4172 N   0  0  0  0  0  0  0  0  0  0  0  0
    6.6352  -36.2160    9.8424 S   0  0  0  0  0  0  0  0  0  0  0  0
    7.1878  -34.9039   10.1054 O   0  0  0  0  0  0  0  0  0  0  0  0
    5.2014  -36.4085    9.7877 O   0  0  0  0  0  0  0  0  0  0  0  0
    7.2943  -37.3182   11.0461 C   0  0  0  0  0  0  0  0  0  0  0  0
    6.4487  -38.1977   11.7324 C   0  0  0  0  0  0  0  0  0  0  0  0
    6.9673  -38.9796   12.7644 C   0  0  0  0  0  0  0  0  0  0  0  0
    8.3171  -38.8794   13.1062 C   0  0  0  0  0  0  0  0  0  0  0  0
    9.1548  -38.0043   12.4126 C   0  0  0  0  0  0  0  0  0  0  0  0
    8.6391  -37.2219   11.3845 C   0  0  0  0  0  0  0  0  0  0  0  0
    9.4610  -36.3758   10.7464 F   0  0  0  0  0  0  0  0  0  0  0  0
  1  2  2  0
  2  3  1  0
  3  4  1  0
  4  5  1  0
  5  6  2  0
  5  7  2  0
  5  8  1  0
  8  9  2  0
  9 10  1  0
 10 11  2  0
 11 12  1  0
 12 13  2  0
 13 14  1  0
 13  8  1  0
M  END
>  <inchikey>  (454) 
YSKYXGWQIMWPMT-UHFFFAOYSA-N

>  <tags>  (454) 
fragmenstein_placed,CpKRS_FrAncestor_bulkdock_iter2

>  <ref_pdb>  (454) 
x0602b

>  <energy_score>  (454) 
-26.305753

>  <distance_score>  (454) 
0.233203

>  <HIPPO Pose ID>  (454) 
55049

>  <ref_mols>  (454) 
x0639c

>  <smiles>  (454) 
C=CCNS(=O)(=O)c1ccccc1F

>  <HIPPO Compound ID>  (454) 
450641

>  <alias>  (454) 
YSKYXGWQIMWPMT-UHFFFAOYSA-N-P54

>  <subsites>  (454) 


>  <placement_batch>  (454) 
CpKRS_FrAncestor_bulkdock_iter2

>  <name>  (454) 
YSKYXGWQIMWPMT-UHFFFAOYSA-N-P54

$$$$
RKOLXPWUQCWXQD-UHFFFAOYSA-N-P54
     RDKit          3D

 14 14  0  0  0  0  0  0  0  0999 V2000
    8.5508  -38.1507    6.0249 C   0  0  0  0  0  0  0  0  0  0  0  0
    7.0830  -38.2398    6.4201 C   0  0  0  0  0  0  0  0  0  0  0  0
    6.8617  -38.1211    7.9266 C   0  0  0  0  0  0  0  0  0  0  0  0
    7.1443  -36.7547    8.3686 N   0  0  0  0  0  0  0  0  0  0  0  0
    6.5070  -36.2149    9.8186 S   0  0  0  0  0  0  0  0  0  0  0  0
    7.0653  -34.9102   10.1035 O   0  0  0  0  0  0  0  0  0  0  0  0
    5.0719  -36.3959    9.7620 O   0  0  0  0  0  0  0  0  0  0  0  0
    7.1524  -37.3531   11.0254 C   0  0  0  0  0  0  0  0  0  0  0  0
    6.2216  -38.1509   11.7153 C   0  0  0  0  0  0  0  0  0  0  0  0
    6.6358  -38.9773   12.7582 C   0  0  0  0  0  0  0  0  0  0  0  0
    7.9769  -39.0115   13.1214 C   0  0  0  0  0  0  0  0  0  0  0  0
    8.9085  -38.2334   12.4338 C   0  0  0  0  0  0  0  0  0  0  0  0
    8.5072  -37.3999   11.3798 C   0  0  0  0  0  0  0  0  0  0  0  0
   10.0513  -36.3340   10.4470 I   0  0  0  0  0  0  0  0  0  0  0  0
  1  2  1  0
  2  3  1  0
  3  4  1  0
  4  5  1  0
  5  6  2  0
  5  7  2  0
  5  8  1  0
  8  9  2  0
  9 10  1  0
 10 11  2  0
 11 12  1  0
 12 13  2  0
 13 14  1  0
 13  8  1  0
M  END
>  <inchikey>  (455) 
RKOLXPWUQCWXQD-UHFFFAOYSA-N

>  <tags>  (455) 
fragmenstein_placed,CpKRS_FrAncestor_bulkdock_iter2

>  <ref_pdb>  (455) 
x0602b

>  <energy_score>  (455) 
-54.677877

>  <distance_score>  (455) 
0.248161

>  <HIPPO Pose ID>  (455) 
55052

>  <ref_mols>  (455) 
x0639c

>  <smiles>  (455) 
CCCNS(=O)(=O)c1ccccc1I

>  <HIPPO Compound ID>  (455) 
450642

>  <alias>  (455) 
RKOLXPWUQCWXQD-UHFFFAOYSA-N-P54

>  <subsites>  (455) 


>  <placement_batch>  (455) 
CpKRS_FrAncestor_bulkdock_iter2

>  <name>  (455) 
RKOLXPWUQCWXQD-UHFFFAOYSA-N-P54

$$$$
UTEGCAJQJAYZTM-UHFFFAOYSA-N-P54
     RDKit          3D

 16 16  0  0  0  0  0  0  0  0999 V2000
    7.2067  -40.4514    7.3484 C   0  0  0  0  0  0  0  0  0  0  0  0
    7.7123  -39.1250    7.8919 C   0  0  0  0  0  0  0  0  0  0  0  0
    6.6216  -38.0596    7.8656 C   0  0  0  0  0  0  0  0  0  0  0  0
    7.1409  -36.7828    8.3617 N   0  0  0  0  0  0  0  0  0  0  0  0
    6.6422  -36.1885    9.8381 S   0  0  0  0  0  0  0  0  0  0  0  0
    5.1996  -36.2739    9.9095 O   0  0  0  0  0  0  0  0  0  0  0  0
    7.3155  -34.9329   10.1014 O   0  0  0  0  0  0  0  0  0  0  0  0
    7.3108  -37.3517   11.0045 C   0  0  0  0  0  0  0  0  0  0  0  0
    6.4306  -38.1794   11.7132 C   0  0  0  0  0  0  0  0  0  0  0  0
    6.9113  -38.9596   12.7650 C   0  0  0  0  0  0  0  0  0  0  0  0
    8.2601  -38.9057   13.1187 C   0  0  0  0  0  0  0  0  0  0  0  0
    9.1430  -38.0877   12.4129 C   0  0  0  0  0  0  0  0  0  0  0  0
    8.6683  -37.3150   11.3496 C   0  0  0  0  0  0  0  0  0  0  0  0
    9.6077  -36.5159   10.6139 N   0  0  0  0  0  0  0  0  0  0  0  0
    9.6398  -36.5827    9.1961 O   0  0  0  0  0  0  0  0  0  0  0  0
   10.6278  -35.7991   11.2724 O   0  0  0  0  0  0  0  0  0  0  0  0
  1  2  1  0
  2  3  1  0
  3  4  1  0
  4  5  1  0
  5  6  2  0
  5  7  2  0
  5  8  1  0
  8  9  2  0
  9 10  1  0
 10 11  2  0
 11 12  1  0
 12 13  2  0
 13 14  1  0
 14 15  2  0
 14 16  1  0
 13  8  1  0
M  CHG  1  14   1
M  END
>  <inchikey>  (456) 
UTEGCAJQJAYZTM-UHFFFAOYSA-N

>  <tags>  (456) 
fragmenstein_placed,CpKRS_FrAncestor_bulkdock_iter2

>  <ref_pdb>  (456) 
x0602b

>  <energy_score>  (456) 
-75.68325

>  <distance_score>  (456) 
0.219728

>  <HIPPO Pose ID>  (456) 
55055

>  <ref_mols>  (456) 
x0639c

>  <smiles>  (456) 
CCCNS(=O)(=O)c1ccccc1[N+](=O)O

>  <HIPPO Compound ID>  (456) 
450643

>  <alias>  (456) 
UTEGCAJQJAYZTM-UHFFFAOYSA-N-P54

>  <subsites>  (456) 


>  <placement_batch>  (456) 
CpKRS_FrAncestor_bulkdock_iter2

>  <name>  (456) 
UTEGCAJQJAYZTM-UHFFFAOYSA-N-P54

$$$$
UBKNDYQTOPYHPO-UHFFFAOYSA-N-P54
     RDKit          3D

 13 13  0  0  0  0  0  0  0  0999 V2000
    8.2345  -38.9746    5.9454 C   0  0  0  0  0  0  0  0  0  0  0  0
    7.4948  -38.5018    6.7653 C   0  0  0  0  0  0  0  0  0  0  0  0
    6.5939  -37.9218    7.7684 C   0  0  0  0  0  0  0  0  0  0  0  0
    7.2678  -36.8081    8.4158 N   0  0  0  0  0  0  0  0  0  0  0  0
    6.6111  -36.2153    9.8248 S   0  0  0  0  0  0  0  0  0  0  0  0
    5.1715  -36.3255    9.7433 O   0  0  0  0  0  0  0  0  0  0  0  0
    7.2496  -34.9448   10.1013 O   0  0  0  0  0  0  0  0  0  0  0  0
    7.2024  -37.3614   11.0419 C   0  0  0  0  0  0  0  0  0  0  0  0
    6.3026  -38.2061   11.6987 C   0  0  0  0  0  0  0  0  0  0  0  0
    6.7624  -39.0215   12.7314 C   0  0  0  0  0  0  0  0  0  0  0  0
    8.1072  -38.9859   13.1030 C   0  0  0  0  0  0  0  0  0  0  0  0
    9.0013  -38.1433   12.4411 C   0  0  0  0  0  0  0  0  0  0  0  0
    8.5519  -37.3252   11.4067 C   0  0  0  0  0  0  0  0  0  0  0  0
  1  2  3  0
  2  3  1  0
  3  4  1  0
  4  5  1  0
  5  6  2  0
  5  7  2  0
  5  8  1  0
  8  9  2  0
  9 10  1  0
 10 11  2  0
 11 12  1  0
 12 13  2  0
 13  8  1  0
M  END
>  <inchikey>  (457) 
UBKNDYQTOPYHPO-UHFFFAOYSA-N

>  <tags>  (457) 
fragmenstein_placed,CpKRS_FrAncestor_bulkdock_iter2

>  <ref_pdb>  (457) 
x0602b

>  <energy_score>  (457) 
-22.410897

>  <distance_score>  (457) 
0.296764

>  <HIPPO Pose ID>  (457) 
55058

>  <ref_mols>  (457) 
x0639c

>  <smiles>  (457) 
C#CCNS(=O)(=O)c1ccccc1

>  <HIPPO Compound ID>  (457) 
450644

>  <alias>  (457) 
UBKNDYQTOPYHPO-UHFFFAOYSA-N-P54

>  <subsites>  (457) 


>  <placement_batch>  (457) 
CpKRS_FrAncestor_bulkdock_iter2

>  <name>  (457) 
UBKNDYQTOPYHPO-UHFFFAOYSA-N-P54

$$$$
RPXWJNZDWLHQDZ-UHFFFAOYSA-N-P54
     RDKit          3D

 15 15  0  0  0  0  0  0  0  0999 V2000
    7.0498  -39.5682    5.8876 C   0  0  0  0  0  0  0  0  0  0  0  0
    7.2772  -38.1640    6.4227 C   0  0  0  0  0  0  0  0  0  0  0  0
    6.9490  -38.0718    7.9102 C   0  0  0  0  0  0  0  0  0  0  0  0
    7.1957  -36.7023    8.3630 N   0  0  0  0  0  0  0  0  0  0  0  0
    6.5180  -36.1932    9.8092 S   0  0  0  0  0  0  0  0  0  0  0  0
    5.0913  -36.4286    9.7312 O   0  0  0  0  0  0  0  0  0  0  0  0
    7.0236  -34.8703   10.1072 O   0  0  0  0  0  0  0  0  0  0  0  0
    7.1896  -37.3193   11.0153 C   0  0  0  0  0  0  0  0  0  0  0  0
    6.2799  -38.1429   11.7033 C   0  0  0  0  0  0  0  0  0  0  0  0
    6.7185  -38.9567   12.7442 C   0  0  0  0  0  0  0  0  0  0  0  0
    8.0591  -38.9441   13.1084 C   0  0  0  0  0  0  0  0  0  0  0  0
    8.9667  -38.1371   12.4184 C   0  0  0  0  0  0  0  0  0  0  0  0
    8.5549  -37.3251   11.3490 C   0  0  0  0  0  0  0  0  0  0  0  0
    9.8058  -36.3386   10.5280 S   0  0  0  0  0  0  0  0  0  0  0  0
   10.9253  -37.6491    9.9620 C   0  0  0  0  0  0  0  0  0  0  0  0
  1  2  1  0
  2  3  1  0
  3  4  1  0
  4  5  1  0
  5  6  2  0
  5  7  2  0
  5  8  1  0
  8  9  2  0
  9 10  1  0
 10 11  2  0
 11 12  1  0
 12 13  2  0
 13 14  1  0
 14 15  1  0
 13  8  1  0
M  END
>  <inchikey>  (458) 
RPXWJNZDWLHQDZ-UHFFFAOYSA-N

>  <tags>  (458) 
fragmenstein_placed,CpKRS_FrAncestor_bulkdock_iter2

>  <ref_pdb>  (458) 
x0602b

>  <energy_score>  (458) 
-45.107621

>  <distance_score>  (458) 
0.201483

>  <HIPPO Pose ID>  (458) 
55061

>  <ref_mols>  (458) 
x0639c

>  <smiles>  (458) 
CCCNS(=O)(=O)c1ccccc1SC

>  <HIPPO Compound ID>  (458) 
450645

>  <alias>  (458) 
RPXWJNZDWLHQDZ-UHFFFAOYSA-N-P54

>  <subsites>  (458) 


>  <placement_batch>  (458) 
CpKRS_FrAncestor_bulkdock_iter2

>  <name>  (458) 
RPXWJNZDWLHQDZ-UHFFFAOYSA-N-P54

$$$$
OKPTYPHVKNNPSG-UHFFFAOYSA-N-P54
     RDKit          3D

 13 13  0  0  0  0  0  0  0  0999 V2000
    8.0030  -37.8717    5.6339 C   0  0  0  0  0  0  0  0  0  0  0  0
    7.5981  -38.6760    6.8614 C   0  0  0  0  0  0  0  0  0  0  0  0
    6.6052  -37.9406    7.7590 C   0  0  0  0  0  0  0  0  0  0  0  0
    7.2631  -36.8078    8.4118 N   0  0  0  0  0  0  0  0  0  0  0  0
    6.6096  -36.2097    9.8301 S   0  0  0  0  0  0  0  0  0  0  0  0
    7.2584  -34.9429   10.1017 O   0  0  0  0  0  0  0  0  0  0  0  0
    5.1690  -36.3097    9.7541 O   0  0  0  0  0  0  0  0  0  0  0  0
    7.2014  -37.3601   11.0431 C   0  0  0  0  0  0  0  0  0  0  0  0
    6.3024  -38.2121   11.6914 C   0  0  0  0  0  0  0  0  0  0  0  0
    6.7605  -39.0296   12.7232 C   0  0  0  0  0  0  0  0  0  0  0  0
    8.1030  -38.9889   13.1024 C   0  0  0  0  0  0  0  0  0  0  0  0
    8.9966  -38.1392   12.4488 C   0  0  0  0  0  0  0  0  0  0  0  0
    8.5487  -37.3189   11.4155 C   0  0  0  0  0  0  0  0  0  0  0  0
  1  2  1  0
  2  3  1  0
  3  4  1  0
  4  5  1  0
  5  6  2  0
  5  7  2  0
  5  8  1  0
  8  9  2  0
  9 10  1  0
 10 11  2  0
 11 12  1  0
 12 13  2  0
 13  8  1  0
M  END
>  <inchikey>  (459) 
OKPTYPHVKNNPSG-UHFFFAOYSA-N

>  <tags>  (459) 
fragmenstein_placed,CpKRS_FrAncestor_bulkdock_iter2

>  <ref_pdb>  (459) 
x0602b

>  <energy_score>  (459) 
-26.426798

>  <distance_score>  (459) 
0.296962

>  <HIPPO Pose ID>  (459) 
55064

>  <ref_mols>  (459) 
x0639c

>  <smiles>  (459) 
CCCNS(=O)(=O)c1ccccc1

>  <HIPPO Compound ID>  (459) 
450646

>  <alias>  (459) 
OKPTYPHVKNNPSG-UHFFFAOYSA-N-P54

>  <subsites>  (459) 


>  <placement_batch>  (459) 
CpKRS_FrAncestor_bulkdock_iter2

>  <name>  (459) 
OKPTYPHVKNNPSG-UHFFFAOYSA-N-P54

$$$$
AUSDMZUIKMAAEN-UHFFFAOYSA-N-P54
     RDKit          3D

 13 13  0  0  0  0  0  0  0  0999 V2000
    7.2631  -37.3322    5.5681 C   0  0  0  0  0  0  0  0  0  0  0  0
    7.0370  -38.2831    6.4868 C   0  0  0  0  0  0  0  0  0  0  0  0
    6.7889  -38.1044    7.9577 C   0  0  0  0  0  0  0  0  0  0  0  0
    7.1882  -36.7697    8.3760 N   0  0  0  0  0  0  0  0  0  0  0  0
    6.6109  -36.1719    9.8213 S   0  0  0  0  0  0  0  0  0  0  0  0
    5.1663  -36.2329    9.8065 O   0  0  0  0  0  0  0  0  0  0  0  0
    7.3041  -34.9289   10.0924 O   0  0  0  0  0  0  0  0  0  0  0  0
    7.1931  -37.3524   11.0154 C   0  0  0  0  0  0  0  0  0  0  0  0
    8.5301  -37.2987   11.4240 C   0  0  0  0  0  0  0  0  0  0  0  0
    8.9643  -38.1341   12.4513 C   0  0  0  0  0  0  0  0  0  0  0  0
    8.0676  -39.0097   13.0650 C   0  0  0  0  0  0  0  0  0  0  0  0
    6.7357  -39.0610   12.6516 C   0  0  0  0  0  0  0  0  0  0  0  0
    6.2909  -38.2289   11.6255 C   0  0  0  0  0  0  0  0  0  0  0  0
  1  2  2  0
  2  3  1  0
  3  4  1  0
  4  5  1  0
  5  6  2  0
  5  7  2  0
  5  8  1  0
  8  9  2  0
  9 10  1  0
 10 11  2  0
 11 12  1  0
 12 13  2  0
 13  8  1  0
M  END
>  <inchikey>  (460) 
AUSDMZUIKMAAEN-UHFFFAOYSA-N

>  <tags>  (460) 
fragmenstein_placed,CpKRS_FrAncestor_bulkdock_iter2

>  <ref_pdb>  (460) 
x0602b

>  <energy_score>  (460) 
-13.146308

>  <distance_score>  (460) 
0.290064

>  <HIPPO Pose ID>  (460) 
55067

>  <ref_mols>  (460) 
x0639c

>  <smiles>  (460) 
C=CCNS(=O)(=O)c1ccccc1

>  <HIPPO Compound ID>  (460) 
450647

>  <alias>  (460) 
AUSDMZUIKMAAEN-UHFFFAOYSA-N-P54

>  <subsites>  (460) 


>  <placement_batch>  (460) 
CpKRS_FrAncestor_bulkdock_iter2

>  <name>  (460) 
AUSDMZUIKMAAEN-UHFFFAOYSA-N-P54

$$$$
DNWXYPNRNVSUPN-UHFFFAOYSA-N-P54
     RDKit          3D

 15 15  0  0  0  0  0  0  0  0999 V2000
    8.8288  -39.7722    8.3199 C   0  0  0  0  0  0  0  0  0  0  0  0
    7.9377  -38.9945    8.1104 C   0  0  0  0  0  0  0  0  0  0  0  0
    6.8520  -38.0403    7.8687 C   0  0  0  0  0  0  0  0  0  0  0  0
    7.2121  -36.7397    8.3997 N   0  0  0  0  0  0  0  0  0  0  0  0
    6.5433  -36.2024    9.8219 S   0  0  0  0  0  0  0  0  0  0  0  0
    5.1095  -36.3277    9.6846 O   0  0  0  0  0  0  0  0  0  0  0  0
    7.1128  -34.9057   10.1263 O   0  0  0  0  0  0  0  0  0  0  0  0
    7.1484  -37.3573   11.0510 C   0  0  0  0  0  0  0  0  0  0  0  0
    6.2668  -38.2051   11.7693 C   0  0  0  0  0  0  0  0  0  0  0  0
    4.7856  -38.3076   11.5257 C   0  0  0  0  0  0  0  0  0  0  0  0
    6.7871  -38.9983   12.8094 C   0  0  0  0  0  0  0  0  0  0  0  0
    8.1376  -38.9665   13.1362 C   0  0  0  0  0  0  0  0  0  0  0  0
    9.0017  -38.1487   12.4216 C   0  0  0  0  0  0  0  0  0  0  0  0
    8.5206  -37.3440   11.3822 C   0  0  0  0  0  0  0  0  0  0  0  0
    9.8541  -36.3019   10.5058 Br  0  0  0  0  0  0  0  0  0  0  0  0
  1  2  3  0
  2  3  1  0
  3  4  1  0
  4  5  1  0
  5  6  2  0
  5  7  2  0
  5  8  1  0
  8  9  2  0
  9 10  1  0
  9 11  1  0
 11 12  2  0
 12 13  1  0
 13 14  2  0
 14 15  1  0
 14  8  1  0
M  END
>  <inchikey>  (461) 
DNWXYPNRNVSUPN-UHFFFAOYSA-N

>  <tags>  (461) 
fragmenstein_placed,CpKRS_FrAncestor_bulkdock_iter2

>  <ref_pdb>  (461) 
x0602b

>  <energy_score>  (461) 
-40.535837

>  <distance_score>  (461) 
0.202216

>  <HIPPO Pose ID>  (461) 
55070

>  <ref_mols>  (461) 
x0639c

>  <smiles>  (461) 
C#CCNS(=O)(=O)c1c(C)cccc1Br

>  <HIPPO Compound ID>  (461) 
311513

>  <alias>  (461) 
DNWXYPNRNVSUPN-UHFFFAOYSA-N-P54

>  <subsites>  (461) 


>  <placement_batch>  (461) 
CpKRS_FrAncestor_bulkdock_iter2

>  <name>  (461) 
DNWXYPNRNVSUPN-UHFFFAOYSA-N-P54

$$$$
AUMXKTGWOAGLEW-UHFFFAOYSA-N-P54
     RDKit          3D

 15 15  0  0  0  0  0  0  0  0999 V2000
    8.4992  -38.9237    6.0523 C   0  0  0  0  0  0  0  0  0  0  0  0
    7.6842  -38.4746    6.8119 C   0  0  0  0  0  0  0  0  0  0  0  0
    6.6938  -37.9222    7.7429 C   0  0  0  0  0  0  0  0  0  0  0  0
    7.2723  -36.7726    8.4147 N   0  0  0  0  0  0  0  0  0  0  0  0
    6.5662  -36.2380    9.8196 S   0  0  0  0  0  0  0  0  0  0  0  0
    5.1398  -36.4601    9.7067 O   0  0  0  0  0  0  0  0  0  0  0  0
    7.0703  -34.9127   10.1093 O   0  0  0  0  0  0  0  0  0  0  0  0
    7.2110  -37.3465   11.0516 C   0  0  0  0  0  0  0  0  0  0  0  0
    6.2876  -38.1886   11.6933 C   0  0  0  0  0  0  0  0  0  0  0  0
    6.6964  -39.0041   12.7414 C   0  0  0  0  0  0  0  0  0  0  0  0
    8.0223  -38.9752   13.1607 C   0  0  0  0  0  0  0  0  0  0  0  0
    8.9651  -38.1430   12.5337 C   0  0  0  0  0  0  0  0  0  0  0  0
   10.3721  -38.1428   13.0737 C   0  0  0  0  0  0  0  0  0  0  0  0
    8.5569  -37.3253   11.4572 C   0  0  0  0  0  0  0  0  0  0  0  0
    9.8682  -36.2396   10.5924 Br  0  0  0  0  0  0  0  0  0  0  0  0
  1  2  3  0
  2  3  1  0
  3  4  1  0
  4  5  1  0
  5  6  2  0
  5  7  2  0
  5  8  1  0
  8  9  2  0
  9 10  1  0
 10 11  2  0
 11 12  1  0
 12 13  1  0
 12 14  2  0
 14 15  1  0
 14  8  1  0
M  END
>  <inchikey>  (462) 
AUMXKTGWOAGLEW-UHFFFAOYSA-N

>  <tags>  (462) 
fragmenstein_placed,CpKRS_FrAncestor_bulkdock_iter2

>  <ref_pdb>  (462) 
x0602b

>  <energy_score>  (462) 
-33.596277

>  <distance_score>  (462) 
0.233748

>  <HIPPO Pose ID>  (462) 
55073

>  <ref_mols>  (462) 
x0639c

>  <smiles>  (462) 
C#CCNS(=O)(=O)c1cccc(C)c1Br

>  <HIPPO Compound ID>  (462) 
311375

>  <alias>  (462) 
AUMXKTGWOAGLEW-UHFFFAOYSA-N-P54

>  <subsites>  (462) 


>  <placement_batch>  (462) 
CpKRS_FrAncestor_bulkdock_iter2

>  <name>  (462) 
AUMXKTGWOAGLEW-UHFFFAOYSA-N-P54

$$$$
RXLVWLKASOKCDB-UHFFFAOYSA-N-P54
     RDKit          3D

 15 15  0  0  0  0  0  0  0  0999 V2000
    7.8076  -38.4044    5.4481 C   0  0  0  0  0  0  0  0  0  0  0  0
    7.3879  -38.2632    6.5648 C   0  0  0  0  0  0  0  0  0  0  0  0
    6.8780  -38.0855    7.9296 C   0  0  0  0  0  0  0  0  0  0  0  0
    7.1916  -36.7384    8.3787 N   0  0  0  0  0  0  0  0  0  0  0  0
    6.5454  -36.2098    9.8198 S   0  0  0  0  0  0  0  0  0  0  0  0
    5.1140  -36.4165    9.7625 O   0  0  0  0  0  0  0  0  0  0  0  0
    7.0825  -34.8977   10.1101 O   0  0  0  0  0  0  0  0  0  0  0  0
    7.2034  -37.3343   11.0289 C   0  0  0  0  0  0  0  0  0  0  0  0
    6.2960  -38.1538   11.7236 C   0  0  0  0  0  0  0  0  0  0  0  0
    6.7357  -38.9794   12.7641 C   0  0  0  0  0  0  0  0  0  0  0  0
    5.7617  -39.8050   13.5523 C   0  0  0  0  0  0  0  0  0  0  0  0
    8.0869  -38.9615   13.1169 C   0  0  0  0  0  0  0  0  0  0  0  0
    8.9920  -38.1571   12.4220 C   0  0  0  0  0  0  0  0  0  0  0  0
    8.5583  -37.3390   11.3745 C   0  0  0  0  0  0  0  0  0  0  0  0
    9.8934  -36.3030   10.5110 Br  0  0  0  0  0  0  0  0  0  0  0  0
  1  2  3  0
  2  3  1  0
  3  4  1  0
  4  5  1  0
  5  6  2  0
  5  7  2  0
  5  8  1  0
  8  9  2  0
  9 10  1  0
 10 11  1  0
 10 12  2  0
 12 13  1  0
 13 14  2  0
 14 15  1  0
 14  8  1  0
M  END
>  <inchikey>  (463) 
RXLVWLKASOKCDB-UHFFFAOYSA-N

>  <tags>  (463) 
fragmenstein_placed,CpKRS_FrAncestor_bulkdock_iter2

>  <ref_pdb>  (463) 
x0602b

>  <energy_score>  (463) 
-28.686664

>  <distance_score>  (463) 
0.199084

>  <HIPPO Pose ID>  (463) 
55076

>  <ref_mols>  (463) 
x0639c

>  <smiles>  (463) 
C#CCNS(=O)(=O)c1cc(C)ccc1Br

>  <HIPPO Compound ID>  (463) 
311377

>  <alias>  (463) 
RXLVWLKASOKCDB-UHFFFAOYSA-N-P54

>  <subsites>  (463) 


>  <placement_batch>  (463) 
CpKRS_FrAncestor_bulkdock_iter2

>  <name>  (463) 
RXLVWLKASOKCDB-UHFFFAOYSA-N-P54

$$$$
NUSXZEXPGPXQHG-UHFFFAOYSA-N-P54
     RDKit          3D

 15 15  0  0  0  0  0  0  0  0999 V2000
    6.0929  -37.3497    5.6357 C   0  0  0  0  0  0  0  0  0  0  0  0
    7.1151  -38.1681    6.4123 C   0  0  0  0  0  0  0  0  0  0  0  0
    6.9071  -38.0881    7.9227 C   0  0  0  0  0  0  0  0  0  0  0  0
    7.2071  -36.7359    8.3919 N   0  0  0  0  0  0  0  0  0  0  0  0
    6.5322  -36.1917    9.8228 S   0  0  0  0  0  0  0  0  0  0  0  0
    7.1085  -34.8986   10.1283 O   0  0  0  0  0  0  0  0  0  0  0  0
    5.0985  -36.3174    9.6898 O   0  0  0  0  0  0  0  0  0  0  0  0
    7.1404  -37.3542   11.0448 C   0  0  0  0  0  0  0  0  0  0  0  0
    6.2595  -38.2012   11.7647 C   0  0  0  0  0  0  0  0  0  0  0  0
    4.7776  -38.3014   11.5236 C   0  0  0  0  0  0  0  0  0  0  0  0
    6.7813  -38.9950   12.8036 C   0  0  0  0  0  0  0  0  0  0  0  0
    8.1329  -38.9658   13.1262 C   0  0  0  0  0  0  0  0  0  0  0  0
    8.9969  -38.1518   12.4070 C   0  0  0  0  0  0  0  0  0  0  0  0
    8.5142  -37.3467   11.3687 C   0  0  0  0  0  0  0  0  0  0  0  0
    9.8472  -36.3146   10.4806 Br  0  0  0  0  0  0  0  0  0  0  0  0
  1  2  1  0
  2  3  1  0
  3  4  1  0
  4  5  1  0
  5  6  2  0
  5  7  2  0
  5  8  1  0
  8  9  2  0
  9 10  1  0
  9 11  1  0
 11 12  2  0
 12 13  1  0
 13 14  2  0
 14 15  1  0
 14  8  1  0
M  END
>  <inchikey>  (464) 
NUSXZEXPGPXQHG-UHFFFAOYSA-N

>  <tags>  (464) 
fragmenstein_placed,CpKRS_FrAncestor_bulkdock_iter2

>  <ref_pdb>  (464) 
x0602b

>  <energy_score>  (464) 
-28.115016

>  <distance_score>  (464) 
0.202793

>  <HIPPO Pose ID>  (464) 
55079

>  <ref_mols>  (464) 
x0639c

>  <smiles>  (464) 
CCCNS(=O)(=O)c1c(C)cccc1Br

>  <HIPPO Compound ID>  (464) 
450648

>  <alias>  (464) 
NUSXZEXPGPXQHG-UHFFFAOYSA-N-P54

>  <subsites>  (464) 


>  <placement_batch>  (464) 
CpKRS_FrAncestor_bulkdock_iter2

>  <name>  (464) 
NUSXZEXPGPXQHG-UHFFFAOYSA-N-P54

$$$$
UELXQCBDGYJOMH-UHFFFAOYSA-N-P54
     RDKit          3D

 15 15  0  0  0  0  0  0  0  0999 V2000
    7.2476  -39.8183    6.1565 C   0  0  0  0  0  0  0  0  0  0  0  0
    7.7677  -38.5852    6.8765 C   0  0  0  0  0  0  0  0  0  0  0  0
    6.6901  -37.9510    7.7507 C   0  0  0  0  0  0  0  0  0  0  0  0
    7.2515  -36.7754    8.4121 N   0  0  0  0  0  0  0  0  0  0  0  0
    6.5587  -36.2274    9.8283 S   0  0  0  0  0  0  0  0  0  0  0  0
    7.0858  -34.9080   10.1061 O   0  0  0  0  0  0  0  0  0  0  0  0
    5.1291  -36.4335    9.7308 O   0  0  0  0  0  0  0  0  0  0  0  0
    7.2068  -37.3351   11.0528 C   0  0  0  0  0  0  0  0  0  0  0  0
    6.2928  -38.1589   11.7341 C   0  0  0  0  0  0  0  0  0  0  0  0
    6.7164  -38.9698   12.7923 C   0  0  0  0  0  0  0  0  0  0  0  0
    5.7448  -39.8521   13.5188 C   0  0  0  0  0  0  0  0  0  0  0  0
    8.0681  -38.9717   13.1430 C   0  0  0  0  0  0  0  0  0  0  0  0
    8.9796  -38.1627   12.4616 C   0  0  0  0  0  0  0  0  0  0  0  0
    8.5567  -37.3366   11.4154 C   0  0  0  0  0  0  0  0  0  0  0  0
    9.9009  -36.2885   10.5806 Br  0  0  0  0  0  0  0  0  0  0  0  0
  1  2  1  0
  2  3  1  0
  3  4  1  0
  4  5  1  0
  5  6  2  0
  5  7  2  0
  5  8  1  0
  8  9  2  0
  9 10  1  0
 10 11  1  0
 10 12  2  0
 12 13  1  0
 13 14  2  0
 14 15  1  0
 14  8  1  0
M  END
>  <inchikey>  (465) 
UELXQCBDGYJOMH-UHFFFAOYSA-N

>  <tags>  (465) 
fragmenstein_placed,CpKRS_FrAncestor_bulkdock_iter2

>  <ref_pdb>  (465) 
x0602b

>  <energy_score>  (465) 
-50.031343

>  <distance_score>  (465) 
0.21874

>  <HIPPO Pose ID>  (465) 
55082

>  <ref_mols>  (465) 
x0639c

>  <smiles>  (465) 
CCCNS(=O)(=O)c1cc(C)ccc1Br

>  <HIPPO Compound ID>  (465) 
450649

>  <alias>  (465) 
UELXQCBDGYJOMH-UHFFFAOYSA-N-P54

>  <subsites>  (465) 


>  <placement_batch>  (465) 
CpKRS_FrAncestor_bulkdock_iter2

>  <name>  (465) 
UELXQCBDGYJOMH-UHFFFAOYSA-N-P54

$$$$
HWXJLMJGVVUWOX-UHFFFAOYSA-N-P54
     RDKit          3D

 15 15  0  0  0  0  0  0  0  0999 V2000
    8.4850  -37.9180    5.9004 C   0  0  0  0  0  0  0  0  0  0  0  0
    7.0384  -38.0658    6.3519 C   0  0  0  0  0  0  0  0  0  0  0  0
    6.8767  -38.0023    7.8694 C   0  0  0  0  0  0  0  0  0  0  0  0
    7.1379  -36.6421    8.3445 N   0  0  0  0  0  0  0  0  0  0  0  0
    6.5323  -36.1644    9.8305 S   0  0  0  0  0  0  0  0  0  0  0  0
    5.1010  -36.3800    9.8144 O   0  0  0  0  0  0  0  0  0  0  0  0
    7.0709  -34.8573   10.1395 O   0  0  0  0  0  0  0  0  0  0  0  0
    7.2430  -37.3281   10.9677 C   0  0  0  0  0  0  0  0  0  0  0  0
    6.3763  -38.2116   11.6300 C   0  0  0  0  0  0  0  0  0  0  0  0
    6.8775  -39.1233   12.5592 C   0  0  0  0  0  0  0  0  0  0  0  0
    8.2441  -39.1565   12.8450 C   0  0  0  0  0  0  0  0  0  0  0  0
    8.8078  -40.1681   13.7999 C   0  0  0  0  0  0  0  0  0  0  0  0
    9.1024  -38.2637   12.1902 C   0  0  0  0  0  0  0  0  0  0  0  0
    8.6109  -37.3467   11.2534 C   0  0  0  0  0  0  0  0  0  0  0  0
    9.9007  -36.2296   10.4229 Br  0  0  0  0  0  0  0  0  0  0  0  0
  1  2  1  0
  2  3  1  0
  3  4  1  0
  4  5  1  0
  5  6  2  0
  5  7  2  0
  5  8  1  0
  8  9  2  0
  9 10  1  0
 10 11  2  0
 11 12  1  0
 11 13  1  0
 13 14  2  0
 14 15  1  0
 14  8  1  0
M  END
>  <inchikey>  (466) 
HWXJLMJGVVUWOX-UHFFFAOYSA-N

>  <tags>  (466) 
fragmenstein_placed,CpKRS_FrAncestor_bulkdock_iter2

>  <ref_pdb>  (466) 
x0602b

>  <energy_score>  (466) 
-36.716666

>  <distance_score>  (466) 
0.278102

>  <HIPPO Pose ID>  (466) 
55085

>  <ref_mols>  (466) 
x0639c

>  <smiles>  (466) 
CCCNS(=O)(=O)c1ccc(C)cc1Br

>  <HIPPO Compound ID>  (466) 
450650

>  <alias>  (466) 
HWXJLMJGVVUWOX-UHFFFAOYSA-N-P54

>  <subsites>  (466) 


>  <placement_batch>  (466) 
CpKRS_FrAncestor_bulkdock_iter2

>  <name>  (466) 
HWXJLMJGVVUWOX-UHFFFAOYSA-N-P54

$$$$
DHRZOJWDVNZQCT-UHFFFAOYSA-N-P54
     RDKit          3D

 15 15  0  0  0  0  0  0  0  0999 V2000
    6.9241  -39.5727    5.8807 C   0  0  0  0  0  0  0  0  0  0  0  0
    7.1749  -38.1725    6.4158 C   0  0  0  0  0  0  0  0  0  0  0  0
    6.9357  -38.0973    7.9209 C   0  0  0  0  0  0  0  0  0  0  0  0
    7.1999  -36.7313    8.3735 N   0  0  0  0  0  0  0  0  0  0  0  0
    6.5388  -36.2040    9.8162 S   0  0  0  0  0  0  0  0  0  0  0  0
    5.1067  -36.4052    9.7438 O   0  0  0  0  0  0  0  0  0  0  0  0
    7.0727  -34.8915   10.1110 O   0  0  0  0  0  0  0  0  0  0  0  0
    7.1859  -37.3393   11.0263 C   0  0  0  0  0  0  0  0  0  0  0  0
    6.2621  -38.1775   11.6719 C   0  0  0  0  0  0  0  0  0  0  0  0
    6.6733  -38.9969   12.7162 C   0  0  0  0  0  0  0  0  0  0  0  0
    8.0018  -38.9755   13.1284 C   0  0  0  0  0  0  0  0  0  0  0  0
    8.9459  -38.1500   12.4948 C   0  0  0  0  0  0  0  0  0  0  0  0
   10.3564  -38.1585   13.0255 C   0  0  0  0  0  0  0  0  0  0  0  0
    8.5353  -37.3299   11.4213 C   0  0  0  0  0  0  0  0  0  0  0  0
    9.8494  -36.2644   10.5353 Br  0  0  0  0  0  0  0  0  0  0  0  0
  1  2  1  0
  2  3  1  0
  3  4  1  0
  4  5  1  0
  5  6  2  0
  5  7  2  0
  5  8  1  0
  8  9  2  0
  9 10  1  0
 10 11  2  0
 11 12  1  0
 12 13  1  0
 12 14  2  0
 14 15  1  0
 14  8  1  0
M  END
>  <inchikey>  (467) 
DHRZOJWDVNZQCT-UHFFFAOYSA-N

>  <tags>  (467) 
fragmenstein_placed,CpKRS_FrAncestor_bulkdock_iter2

>  <ref_pdb>  (467) 
x0602b

>  <energy_score>  (467) 
-38.256353

>  <distance_score>  (467) 
0.214428

>  <HIPPO Pose ID>  (467) 
55088

>  <ref_mols>  (467) 
x0639c

>  <smiles>  (467) 
CCCNS(=O)(=O)c1cccc(C)c1Br

>  <HIPPO Compound ID>  (467) 
450651

>  <alias>  (467) 
DHRZOJWDVNZQCT-UHFFFAOYSA-N-P54

>  <subsites>  (467) 


>  <placement_batch>  (467) 
CpKRS_FrAncestor_bulkdock_iter2

>  <name>  (467) 
DHRZOJWDVNZQCT-UHFFFAOYSA-N-P54

$$$$
RVPNPIFCABNKQL-UHFFFAOYSA-N-P54
     RDKit          3D

 16 16  0  0  0  0  0  0  0  0999 V2000
    8.5399  -38.2393    6.0256 C   0  0  0  0  0  0  0  0  0  0  0  0
    7.0576  -38.2250    6.3738 C   0  0  0  0  0  0  0  0  0  0  0  0
    6.7974  -38.1008    7.8741 C   0  0  0  0  0  0  0  0  0  0  0  0
    7.1416  -36.7579    8.3345 N   0  0  0  0  0  0  0  0  0  0  0  0
    6.5668  -36.2076    9.8067 S   0  0  0  0  0  0  0  0  0  0  0  0
    5.1243  -36.2681    9.7702 O   0  0  0  0  0  0  0  0  0  0  0  0
    7.2155  -34.9388   10.0731 O   0  0  0  0  0  0  0  0  0  0  0  0
    7.2158  -37.4094   10.9885 C   0  0  0  0  0  0  0  0  0  0  0  0
    8.5791  -37.2985   11.3843 C   0  0  0  0  0  0  0  0  0  0  0  0
    9.5737  -36.3432   10.7770 C   0  0  0  0  0  0  0  0  0  0  0  0
    9.0478  -38.0855   12.4502 C   0  0  0  0  0  0  0  0  0  0  0  0
    8.2145  -38.9871   13.0948 C   0  0  0  0  0  0  0  0  0  0  0  0
    6.9025  -39.1386   12.6682 C   0  0  0  0  0  0  0  0  0  0  0  0
    6.3774  -38.3730   11.6070 C   0  0  0  0  0  0  0  0  0  0  0  0
    4.9428  -38.6824   11.2395 C   0  0  0  0  0  0  0  0  0  0  0  0
    3.9377  -37.9624   12.1256 C   0  0  0  0  0  0  0  0  0  0  0  0
  1  2  1  0
  2  3  1  0
  3  4  1  0
  4  5  1  0
  5  6  2  0
  5  7  2  0
  5  8  1  0
  8  9  2  0
  9 10  1  0
  9 11  1  0
 11 12  2  0
 12 13  1  0
 13 14  2  0
 14 15  1  0
 15 16  1  0
 14  8  1  0
M  END
>  <inchikey>  (468) 
RVPNPIFCABNKQL-UHFFFAOYSA-N

>  <tags>  (468) 
fragmenstein_placed,CpKRS_FrAncestor_bulkdock_iter2

>  <ref_pdb>  (468) 
x0602b

>  <energy_score>  (468) 
-35.632921

>  <distance_score>  (468) 
0.240289

>  <HIPPO Pose ID>  (468) 
55091

>  <ref_mols>  (468) 
x0639c

>  <smiles>  (468) 
CCCNS(=O)(=O)c1c(C)cccc1CC

>  <HIPPO Compound ID>  (468) 
450652

>  <alias>  (468) 
RVPNPIFCABNKQL-UHFFFAOYSA-N-P54

>  <subsites>  (468) 


>  <placement_batch>  (468) 
CpKRS_FrAncestor_bulkdock_iter2

>  <name>  (468) 
RVPNPIFCABNKQL-UHFFFAOYSA-N-P54

$$$$
KJMBQRFBUBIPQV-UHFFFAOYSA-N-P54
     RDKit          3D

 15 15  0  0  0  0  0  0  0  0999 V2000
    8.8253  -39.7821    8.3950 C   0  0  0  0  0  0  0  0  0  0  0  0
    7.9477  -38.9979    8.1551 C   0  0  0  0  0  0  0  0  0  0  0  0
    6.8786  -38.0354    7.8752 C   0  0  0  0  0  0  0  0  0  0  0  0
    7.2346  -36.7319    8.4040 N   0  0  0  0  0  0  0  0  0  0  0  0
    6.5691  -36.2009    9.8313 S   0  0  0  0  0  0  0  0  0  0  0  0
    7.1296  -34.8997   10.1333 O   0  0  0  0  0  0  0  0  0  0  0  0
    5.1354  -36.3393    9.7048 O   0  0  0  0  0  0  0  0  0  0  0  0
    7.1883  -37.3481   11.0554 C   0  0  0  0  0  0  0  0  0  0  0  0
    6.3267  -38.2064   11.7829 C   0  0  0  0  0  0  0  0  0  0  0  0
    4.8455  -38.3290   11.5526 C   0  0  0  0  0  0  0  0  0  0  0  0
    6.8715  -38.9883   12.8188 C   0  0  0  0  0  0  0  0  0  0  0  0
    8.2260  -38.9343   13.1299 C   0  0  0  0  0  0  0  0  0  0  0  0
    9.0691  -38.1045   12.4031 C   0  0  0  0  0  0  0  0  0  0  0  0
    8.5622  -37.3107   11.3695 C   0  0  0  0  0  0  0  0  0  0  0  0
    9.7329  -36.3367   10.5418 Cl  0  0  0  0  0  0  0  0  0  0  0  0
  1  2  3  0
  2  3  1  0
  3  4  1  0
  4  5  1  0
  5  6  2  0
  5  7  2  0
  5  8  1  0
  8  9  2  0
  9 10  1  0
  9 11  1  0
 11 12  2  0
 12 13  1  0
 13 14  2  0
 14 15  1  0
 14  8  1  0
M  END
>  <inchikey>  (469) 
KJMBQRFBUBIPQV-UHFFFAOYSA-N

>  <tags>  (469) 
fragmenstein_placed,CpKRS_FrAncestor_bulkdock_iter2

>  <ref_pdb>  (469) 
x0602b

>  <energy_score>  (469) 
-31.424876

>  <distance_score>  (469) 
0.192788

>  <HIPPO Pose ID>  (469) 
55094

>  <ref_mols>  (469) 
x0639c

>  <smiles>  (469) 
C#CCNS(=O)(=O)c1c(C)cccc1Cl

>  <HIPPO Compound ID>  (469) 
311511

>  <alias>  (469) 
KJMBQRFBUBIPQV-UHFFFAOYSA-N-P54

>  <subsites>  (469) 


>  <placement_batch>  (469) 
CpKRS_FrAncestor_bulkdock_iter2

>  <name>  (469) 
KJMBQRFBUBIPQV-UHFFFAOYSA-N-P54

$$$$
NNZZDONIQVLJGY-UHFFFAOYSA-N-P54
     RDKit          3D

 15 15  0  0  0  0  0  0  0  0999 V2000
    8.4025  -38.7847    5.9530 C   0  0  0  0  0  0  0  0  0  0  0  0
    7.6095  -38.3592    6.7486 C   0  0  0  0  0  0  0  0  0  0  0  0
    6.6460  -37.8353    7.7233 C   0  0  0  0  0  0  0  0  0  0  0  0
    7.2323  -36.6887    8.3931 N   0  0  0  0  0  0  0  0  0  0  0  0
    6.5875  -36.1975    9.8426 S   0  0  0  0  0  0  0  0  0  0  0  0
    5.1613  -36.4428    9.7968 O   0  0  0  0  0  0  0  0  0  0  0  0
    7.0882  -34.8726   10.1383 O   0  0  0  0  0  0  0  0  0  0  0  0
    7.3092  -37.3230   11.0018 C   0  0  0  0  0  0  0  0  0  0  0  0
    6.4640  -38.2304   11.6595 C   0  0  0  0  0  0  0  0  0  0  0  0
    6.9886  -39.1253   12.5920 C   0  0  0  0  0  0  0  0  0  0  0  0
    8.3551  -39.1170   12.8824 C   0  0  0  0  0  0  0  0  0  0  0  0
    8.9485  -40.1121   13.8365 C   0  0  0  0  0  0  0  0  0  0  0  0
    9.1879  -38.1947   12.2345 C   0  0  0  0  0  0  0  0  0  0  0  0
    8.6731  -37.2933   11.2968 C   0  0  0  0  0  0  0  0  0  0  0  0
    9.8036  -36.2209   10.5535 Cl  0  0  0  0  0  0  0  0  0  0  0  0
  1  2  3  0
  2  3  1  0
  3  4  1  0
  4  5  1  0
  5  6  2  0
  5  7  2  0
  5  8  1  0
  8  9  2  0
  9 10  1  0
 10 11  2  0
 11 12  1  0
 11 13  1  0
 13 14  2  0
 14 15  1  0
 14  8  1  0
M  END
>  <inchikey>  (470) 
NNZZDONIQVLJGY-UHFFFAOYSA-N

>  <tags>  (470) 
fragmenstein_placed,CpKRS_FrAncestor_bulkdock_iter2

>  <ref_pdb>  (470) 
x0602b

>  <energy_score>  (470) 
-17.848188

>  <distance_score>  (470) 
0.28656

>  <HIPPO Pose ID>  (470) 
55097

>  <ref_mols>  (470) 
x0639c

>  <smiles>  (470) 
C#CCNS(=O)(=O)c1ccc(C)cc1Cl

>  <HIPPO Compound ID>  (470) 
311446

>  <alias>  (470) 
NNZZDONIQVLJGY-UHFFFAOYSA-N-P54

>  <subsites>  (470) 


>  <placement_batch>  (470) 
CpKRS_FrAncestor_bulkdock_iter2

>  <name>  (470) 
NNZZDONIQVLJGY-UHFFFAOYSA-N-P54

$$$$
XEVYWZLTKMJIQY-UHFFFAOYSA-N-P54
     RDKit          3D

 15 15  0  0  0  0  0  0  0  0999 V2000
    8.9057  -39.7206    8.3309 C   0  0  0  0  0  0  0  0  0  0  0  0
    7.9919  -38.9694    8.1221 C   0  0  0  0  0  0  0  0  0  0  0  0
    6.8793  -38.0465    7.8807 C   0  0  0  0  0  0  0  0  0  0  0  0
    7.2140  -36.7285    8.3877 N   0  0  0  0  0  0  0  0  0  0  0  0
    6.5746  -36.2019    9.8259 S   0  0  0  0  0  0  0  0  0  0  0  0
    7.1144  -34.8896   10.1120 O   0  0  0  0  0  0  0  0  0  0  0  0
    5.1408  -36.3959    9.7638 O   0  0  0  0  0  0  0  0  0  0  0  0
    7.2218  -37.3250   11.0344 C   0  0  0  0  0  0  0  0  0  0  0  0
    6.3196  -38.1631   11.7120 C   0  0  0  0  0  0  0  0  0  0  0  0
    6.7592  -38.9728   12.7650 C   0  0  0  0  0  0  0  0  0  0  0  0
    5.8021  -39.8724   13.4901 C   0  0  0  0  0  0  0  0  0  0  0  0
    8.1122  -38.9563   13.1133 C   0  0  0  0  0  0  0  0  0  0  0  0
    9.0104  -38.1308   12.4332 C   0  0  0  0  0  0  0  0  0  0  0  0
    8.5716  -37.3069   11.3936 C   0  0  0  0  0  0  0  0  0  0  0  0
    9.7651  -36.3286   10.6178 Cl  0  0  0  0  0  0  0  0  0  0  0  0
  1  2  3  0
  2  3  1  0
  3  4  1  0
  4  5  1  0
  5  6  2  0
  5  7  2  0
  5  8  1  0
  8  9  2  0
  9 10  1  0
 10 11  1  0
 10 12  2  0
 12 13  1  0
 13 14  2  0
 14 15  1  0
 14  8  1  0
M  END
>  <inchikey>  (471) 
XEVYWZLTKMJIQY-UHFFFAOYSA-N

>  <tags>  (471) 
fragmenstein_placed,CpKRS_FrAncestor_bulkdock_iter2

>  <ref_pdb>  (471) 
x0602b

>  <energy_score>  (471) 
-23.513224

>  <distance_score>  (471) 
0.187969

>  <HIPPO Pose ID>  (471) 
55100

>  <ref_mols>  (471) 
x0639c

>  <smiles>  (471) 
C#CCNS(=O)(=O)c1cc(C)ccc1Cl

>  <HIPPO Compound ID>  (471) 
311378

>  <alias>  (471) 
XEVYWZLTKMJIQY-UHFFFAOYSA-N-P54

>  <subsites>  (471) 


>  <placement_batch>  (471) 
CpKRS_FrAncestor_bulkdock_iter2

>  <name>  (471) 
XEVYWZLTKMJIQY-UHFFFAOYSA-N-P54

$$$$
ZRNYMLGLUNNNEP-UHFFFAOYSA-N-P54
     RDKit          3D

 15 15  0  0  0  0  0  0  0  0999 V2000
    8.5213  -38.9144    6.0555 C   0  0  0  0  0  0  0  0  0  0  0  0
    7.7061  -38.4640    6.8141 C   0  0  0  0  0  0  0  0  0  0  0  0
    6.7152  -37.9100    7.7437 C   0  0  0  0  0  0  0  0  0  0  0  0
    7.2969  -36.7666    8.4232 N   0  0  0  0  0  0  0  0  0  0  0  0
    6.5895  -36.2347    9.8280 S   0  0  0  0  0  0  0  0  0  0  0  0
    7.0854  -34.9058   10.1151 O   0  0  0  0  0  0  0  0  0  0  0  0
    5.1642  -36.4668    9.7201 O   0  0  0  0  0  0  0  0  0  0  0  0
    7.2418  -37.3365   11.0564 C   0  0  0  0  0  0  0  0  0  0  0  0
    6.3393  -38.2042   11.6924 C   0  0  0  0  0  0  0  0  0  0  0  0
    6.7707  -39.0126   12.7377 C   0  0  0  0  0  0  0  0  0  0  0  0
    8.0964  -38.9510   13.1574 C   0  0  0  0  0  0  0  0  0  0  0  0
    9.0145  -38.0904   12.5328 C   0  0  0  0  0  0  0  0  0  0  0  0
   10.4243  -38.0424   13.0609 C   0  0  0  0  0  0  0  0  0  0  0  0
    8.5834  -37.2789   11.4631 C   0  0  0  0  0  0  0  0  0  0  0  0
    9.7414  -36.2462   10.6867 Cl  0  0  0  0  0  0  0  0  0  0  0  0
  1  2  3  0
  2  3  1  0
  3  4  1  0
  4  5  1  0
  5  6  2  0
  5  7  2  0
  5  8  1  0
  8  9  2  0
  9 10  1  0
 10 11  2  0
 11 12  1  0
 12 13  1  0
 12 14  2  0
 14 15  1  0
 14  8  1  0
M  END
>  <inchikey>  (472) 
ZRNYMLGLUNNNEP-UHFFFAOYSA-N

>  <tags>  (472) 
fragmenstein_placed,CpKRS_FrAncestor_bulkdock_iter2

>  <ref_pdb>  (472) 
x0602b

>  <energy_score>  (472) 
-26.616691

>  <distance_score>  (472) 
0.222522

>  <HIPPO Pose ID>  (472) 
55103

>  <ref_mols>  (472) 
x0639c

>  <smiles>  (472) 
C#CCNS(=O)(=O)c1cccc(C)c1Cl

>  <HIPPO Compound ID>  (472) 
311379

>  <alias>  (472) 
ZRNYMLGLUNNNEP-UHFFFAOYSA-N-P54

>  <subsites>  (472) 


>  <placement_batch>  (472) 
CpKRS_FrAncestor_bulkdock_iter2

>  <name>  (472) 
ZRNYMLGLUNNNEP-UHFFFAOYSA-N-P54

$$$$
NETRSOQHQGOMHD-UHFFFAOYSA-N-P54
     RDKit          3D

 15 15  0  0  0  0  0  0  0  0999 V2000
    8.3120  -37.8247    5.7365 C   0  0  0  0  0  0  0  0  0  0  0  0
    7.8437  -38.6326    6.9388 C   0  0  0  0  0  0  0  0  0  0  0  0
    6.7463  -37.9349    7.7393 C   0  0  0  0  0  0  0  0  0  0  0  0
    7.2920  -36.7629    8.4198 N   0  0  0  0  0  0  0  0  0  0  0  0
    6.5830  -36.2294    9.8325 S   0  0  0  0  0  0  0  0  0  0  0  0
    7.0859  -34.9023   10.1174 O   0  0  0  0  0  0  0  0  0  0  0  0
    5.1567  -36.4557    9.7273 O   0  0  0  0  0  0  0  0  0  0  0  0
    7.2370  -37.3347   11.0566 C   0  0  0  0  0  0  0  0  0  0  0  0
    6.3345  -38.2011   11.6940 C   0  0  0  0  0  0  0  0  0  0  0  0
    6.7666  -39.0109   12.7380 C   0  0  0  0  0  0  0  0  0  0  0  0
    8.0933  -38.9519   13.1548 C   0  0  0  0  0  0  0  0  0  0  0  0
    9.0119  -38.0935   12.5278 C   0  0  0  0  0  0  0  0  0  0  0  0
   10.4229  -38.0486   13.0525 C   0  0  0  0  0  0  0  0  0  0  0  0
    8.5799  -37.2810   11.4590 C   0  0  0  0  0  0  0  0  0  0  0  0
    9.7395  -36.2535   10.6777 Cl  0  0  0  0  0  0  0  0  0  0  0  0
  1  2  1  0
  2  3  1  0
  3  4  1  0
  4  5  1  0
  5  6  2  0
  5  7  2  0
  5  8  1  0
  8  9  2  0
  9 10  1  0
 10 11  2  0
 11 12  1  0
 12 13  1  0
 12 14  2  0
 14 15  1  0
 14  8  1  0
M  END
>  <inchikey>  (473) 
NETRSOQHQGOMHD-UHFFFAOYSA-N

>  <tags>  (473) 
fragmenstein_placed,CpKRS_FrAncestor_bulkdock_iter2

>  <ref_pdb>  (473) 
x0602b

>  <energy_score>  (473) 
-46.578876

>  <distance_score>  (473) 
0.219079

>  <HIPPO Pose ID>  (473) 
55106

>  <ref_mols>  (473) 
x0639c

>  <smiles>  (473) 
CCCNS(=O)(=O)c1cccc(C)c1Cl

>  <HIPPO Compound ID>  (473) 
450653

>  <alias>  (473) 
NETRSOQHQGOMHD-UHFFFAOYSA-N-P54

>  <subsites>  (473) 


>  <placement_batch>  (473) 
CpKRS_FrAncestor_bulkdock_iter2

>  <name>  (473) 
NETRSOQHQGOMHD-UHFFFAOYSA-N-P54

$$$$
DPXZTIJJZZILJV-UHFFFAOYSA-N-P54
     RDKit          3D

 15 15  0  0  0  0  0  0  0  0999 V2000
    6.1309  -37.3421    5.6349 C   0  0  0  0  0  0  0  0  0  0  0  0
    7.1488  -38.1606    6.4169 C   0  0  0  0  0  0  0  0  0  0  0  0
    6.9325  -38.0810    7.9262 C   0  0  0  0  0  0  0  0  0  0  0  0
    7.2302  -36.7287    8.3974 N   0  0  0  0  0  0  0  0  0  0  0  0
    6.5570  -36.1911    9.8320 S   0  0  0  0  0  0  0  0  0  0  0  0
    5.1237  -36.3314    9.7080 O   0  0  0  0  0  0  0  0  0  0  0  0
    7.1233  -34.8931   10.1357 O   0  0  0  0  0  0  0  0  0  0  0  0
    7.1796  -37.3456   11.0489 C   0  0  0  0  0  0  0  0  0  0  0  0
    6.3185  -38.2002   11.7812 C   0  0  0  0  0  0  0  0  0  0  0  0
    4.8355  -38.3165   11.5581 C   0  0  0  0  0  0  0  0  0  0  0  0
    6.8655  -38.9833   12.8151 C   0  0  0  0  0  0  0  0  0  0  0  0
    8.2220  -38.9347   13.1184 C   0  0  0  0  0  0  0  0  0  0  0  0
    9.0650  -38.1110   12.3844 C   0  0  0  0  0  0  0  0  0  0  0  0
    8.5557  -37.3164   11.3525 C   0  0  0  0  0  0  0  0  0  0  0  0
    9.7257  -36.3546   10.5106 Cl  0  0  0  0  0  0  0  0  0  0  0  0
  1  2  1  0
  2  3  1  0
  3  4  1  0
  4  5  1  0
  5  6  2  0
  5  7  2  0
  5  8  1  0
  8  9  2  0
  9 10  1  0
  9 11  1  0
 11 12  2  0
 12 13  1  0
 13 14  2  0
 14 15  1  0
 14  8  1  0
M  END
>  <inchikey>  (474) 
DPXZTIJJZZILJV-UHFFFAOYSA-N

>  <tags>  (474) 
fragmenstein_placed,CpKRS_FrAncestor_bulkdock_iter2

>  <ref_pdb>  (474) 
x0602b

>  <energy_score>  (474) 
-35.567041

>  <distance_score>  (474) 
0.194266

>  <HIPPO Pose ID>  (474) 
55109

>  <ref_mols>  (474) 
x0639c

>  <smiles>  (474) 
CCCNS(=O)(=O)c1c(C)cccc1Cl

>  <HIPPO Compound ID>  (474) 
450654

>  <alias>  (474) 
DPXZTIJJZZILJV-UHFFFAOYSA-N-P54

>  <subsites>  (474) 


>  <placement_batch>  (474) 
CpKRS_FrAncestor_bulkdock_iter2

>  <name>  (474) 
DPXZTIJJZZILJV-UHFFFAOYSA-N-P54

$$$$
RHANEYDTDYPXON-UHFFFAOYSA-N-P54
     RDKit          3D

 15 15  0  0  0  0  0  0  0  0999 V2000
    6.8841  -39.5658    5.8897 C   0  0  0  0  0  0  0  0  0  0  0  0
    7.1466  -38.1668    6.4226 C   0  0  0  0  0  0  0  0  0  0  0  0
    6.9291  -38.0925    7.9311 C   0  0  0  0  0  0  0  0  0  0  0  0
    7.2034  -36.7275    8.3813 N   0  0  0  0  0  0  0  0  0  0  0  0
    6.5648  -36.1999    9.8343 S   0  0  0  0  0  0  0  0  0  0  0  0
    7.1044  -34.8871   10.1178 O   0  0  0  0  0  0  0  0  0  0  0  0
    5.1325  -36.4054    9.7887 O   0  0  0  0  0  0  0  0  0  0  0  0
    7.2339  -37.3255   11.0302 C   0  0  0  0  0  0  0  0  0  0  0  0
    6.3440  -38.1603   11.7278 C   0  0  0  0  0  0  0  0  0  0  0  0
    6.8062  -38.9806   12.7629 C   0  0  0  0  0  0  0  0  0  0  0  0
    5.8522  -39.8237   13.5570 C   0  0  0  0  0  0  0  0  0  0  0  0
    8.1605  -38.9412   13.1051 C   0  0  0  0  0  0  0  0  0  0  0  0
    9.0467  -38.1206   12.4039 C   0  0  0  0  0  0  0  0  0  0  0  0
    8.5902  -37.3079   11.3631 C   0  0  0  0  0  0  0  0  0  0  0  0
    9.7697  -36.3384   10.5561 Cl  0  0  0  0  0  0  0  0  0  0  0  0
  1  2  1  0
  2  3  1  0
  3  4  1  0
  4  5  1  0
  5  6  2  0
  5  7  2  0
  5  8  1  0
  8  9  2  0
  9 10  1  0
 10 11  1  0
 10 12  2  0
 12 13  1  0
 13 14  2  0
 14 15  1  0
 14  8  1  0
M  END
>  <inchikey>  (475) 
RHANEYDTDYPXON-UHFFFAOYSA-N

>  <tags>  (475) 
fragmenstein_placed,CpKRS_FrAncestor_bulkdock_iter2

>  <ref_pdb>  (475) 
x0602b

>  <energy_score>  (475) 
-30.126608

>  <distance_score>  (475) 
0.187639

>  <HIPPO Pose ID>  (475) 
55112

>  <ref_mols>  (475) 
x0639c

>  <smiles>  (475) 
CCCNS(=O)(=O)c1cc(C)ccc1Cl

>  <HIPPO Compound ID>  (475) 
450655

>  <alias>  (475) 
RHANEYDTDYPXON-UHFFFAOYSA-N-P54

>  <subsites>  (475) 


>  <placement_batch>  (475) 
CpKRS_FrAncestor_bulkdock_iter2

>  <name>  (475) 
RHANEYDTDYPXON-UHFFFAOYSA-N-P54

$$$$
XYTINAXAERSBFW-UHFFFAOYSA-N-P54
     RDKit          3D

 15 15  0  0  0  0  0  0  0  0999 V2000
    5.8667  -37.2450    5.6709 C   0  0  0  0  0  0  0  0  0  0  0  0
    6.9882  -38.0235    6.3445 C   0  0  0  0  0  0  0  0  0  0  0  0
    6.8933  -37.9918    7.8680 C   0  0  0  0  0  0  0  0  0  0  0  0
    7.1561  -36.6361    8.3514 N   0  0  0  0  0  0  0  0  0  0  0  0
    6.5567  -36.1599    9.8376 S   0  0  0  0  0  0  0  0  0  0  0  0
    5.1266  -36.3849    9.8298 O   0  0  0  0  0  0  0  0  0  0  0  0
    7.0877  -34.8488   10.1422 O   0  0  0  0  0  0  0  0  0  0  0  0
    7.2775  -37.3149   10.9714 C   0  0  0  0  0  0  0  0  0  0  0  0
    6.4290  -38.2117   11.6384 C   0  0  0  0  0  0  0  0  0  0  0  0
    6.9528  -39.1100   12.5682 C   0  0  0  0  0  0  0  0  0  0  0  0
    8.3220  -39.1154   12.8470 C   0  0  0  0  0  0  0  0  0  0  0  0
    8.9111  -40.1088   13.8056 C   0  0  0  0  0  0  0  0  0  0  0  0
    9.1597  -38.2074   12.1854 C   0  0  0  0  0  0  0  0  0  0  0  0
    8.6454  -37.3039   11.2497 C   0  0  0  0  0  0  0  0  0  0  0  0
    9.7808  -36.2592   10.4745 Cl  0  0  0  0  0  0  0  0  0  0  0  0
  1  2  1  0
  2  3  1  0
  3  4  1  0
  4  5  1  0
  5  6  2  0
  5  7  2  0
  5  8  1  0
  8  9  2  0
  9 10  1  0
 10 11  2  0
 11 12  1  0
 11 13  1  0
 13 14  2  0
 14 15  1  0
 14  8  1  0
M  END
>  <inchikey>  (476) 
XYTINAXAERSBFW-UHFFFAOYSA-N

>  <tags>  (476) 
fragmenstein_placed,CpKRS_FrAncestor_bulkdock_iter2

>  <ref_pdb>  (476) 
x0602b

>  <energy_score>  (476) 
-41.438297

>  <distance_score>  (476) 
0.269457

>  <HIPPO Pose ID>  (476) 
55115

>  <ref_mols>  (476) 
x0639c

>  <smiles>  (476) 
CCCNS(=O)(=O)c1ccc(C)cc1Cl

>  <HIPPO Compound ID>  (476) 
450656

>  <alias>  (476) 
XYTINAXAERSBFW-UHFFFAOYSA-N-P54

>  <subsites>  (476) 


>  <placement_batch>  (476) 
CpKRS_FrAncestor_bulkdock_iter2

>  <name>  (476) 
XYTINAXAERSBFW-UHFFFAOYSA-N-P54

$$$$
XRQFHVXWLYFGCK-UHFFFAOYSA-N-P54
     RDKit          3D

 15 15  0  0  0  0  0  0  0  0999 V2000
    7.3997  -38.3787    5.3417 C   0  0  0  0  0  0  0  0  0  0  0  0
    7.1277  -38.2483    6.5045 C   0  0  0  0  0  0  0  0  0  0  0  0
    6.7970  -38.0844    7.9252 C   0  0  0  0  0  0  0  0  0  0  0  0
    7.1508  -36.7382    8.3396 N   0  0  0  0  0  0  0  0  0  0  0  0
    6.5956  -36.1711    9.8006 S   0  0  0  0  0  0  0  0  0  0  0  0
    5.1536  -36.2947    9.8070 O   0  0  0  0  0  0  0  0  0  0  0  0
    7.2210  -34.8914   10.0601 O   0  0  0  0  0  0  0  0  0  0  0  0
    7.2501  -37.3388   10.9911 C   0  0  0  0  0  0  0  0  0  0  0  0
    6.3255  -38.2064   11.5959 C   0  0  0  0  0  0  0  0  0  0  0  0
    6.7247  -39.0381   12.6338 C   0  0  0  0  0  0  0  0  0  0  0  0
    8.0376  -38.9896   13.0878 C   0  0  0  0  0  0  0  0  0  0  0  0
    8.9776  -38.1247   12.5022 C   0  0  0  0  0  0  0  0  0  0  0  0
   10.3643  -38.0883   13.0929 C   0  0  0  0  0  0  0  0  0  0  0  0
    8.6015  -37.3061   11.4094 C   0  0  0  0  0  0  0  0  0  0  0  0
    9.6155  -36.3764   10.7929 C   0  0  0  0  0  0  0  0  0  0  0  0
  1  2  3  0
  2  3  1  0
  3  4  1  0
  4  5  1  0
  5  6  2  0
  5  7  2  0
  5  8  1  0
  8  9  2  0
  9 10  1  0
 10 11  2  0
 11 12  1  0
 12 13  1  0
 12 14  2  0
 14 15  1  0
 14  8  1  0
M  END
>  <inchikey>  (477) 
XRQFHVXWLYFGCK-UHFFFAOYSA-N

>  <tags>  (477) 
fragmenstein_placed,CpKRS_FrAncestor_bulkdock_iter2

>  <ref_pdb>  (477) 
x0602b

>  <energy_score>  (477) 
-30.694417

>  <distance_score>  (477) 
0.214157

>  <HIPPO Pose ID>  (477) 
55118

>  <ref_mols>  (477) 
x0639c

>  <smiles>  (477) 
C#CCNS(=O)(=O)c1cccc(C)c1C

>  <HIPPO Compound ID>  (477) 
311387

>  <alias>  (477) 
XRQFHVXWLYFGCK-UHFFFAOYSA-N-P54

>  <subsites>  (477) 


>  <placement_batch>  (477) 
CpKRS_FrAncestor_bulkdock_iter2

>  <name>  (477) 
XRQFHVXWLYFGCK-UHFFFAOYSA-N-P54

$$$$
KPRSBCKKEWIBCN-UHFFFAOYSA-N-P54
     RDKit          3D

 15 15  0  0  0  0  0  0  0  0999 V2000
    8.2049  -38.9039    5.8924 C   0  0  0  0  0  0  0  0  0  0  0  0
    7.4749  -38.4610    6.7373 C   0  0  0  0  0  0  0  0  0  0  0  0
    6.5860  -37.9173    7.7712 C   0  0  0  0  0  0  0  0  0  0  0  0
    7.2357  -36.7762    8.3940 N   0  0  0  0  0  0  0  0  0  0  0  0
    6.5944  -36.1961    9.8185 S   0  0  0  0  0  0  0  0  0  0  0  0
    5.1563  -36.2916    9.7141 O   0  0  0  0  0  0  0  0  0  0  0  0
    7.2091  -34.9109   10.0830 O   0  0  0  0  0  0  0  0  0  0  0  0
    7.2314  -37.3513   11.0439 C   0  0  0  0  0  0  0  0  0  0  0  0
    8.6174  -37.3166   11.3566 C   0  0  0  0  0  0  0  0  0  0  0  0
    9.6194  -36.4178   10.6792 C   0  0  0  0  0  0  0  0  0  0  0  0
    9.0960  -38.1194   12.4050 C   0  0  0  0  0  0  0  0  0  0  0  0
    8.2419  -38.9503   13.1183 C   0  0  0  0  0  0  0  0  0  0  0  0
    6.8919  -39.0011   12.7945 C   0  0  0  0  0  0  0  0  0  0  0  0
    6.3605  -38.2129   11.7587 C   0  0  0  0  0  0  0  0  0  0  0  0
    4.8806  -38.3295   11.5174 C   0  0  0  0  0  0  0  0  0  0  0  0
  1  2  3  0
  2  3  1  0
  3  4  1  0
  4  5  1  0
  5  6  2  0
  5  7  2  0
  5  8  1  0
  8  9  2  0
  9 10  1  0
  9 11  1  0
 11 12  2  0
 12 13  1  0
 13 14  2  0
 14 15  1  0
 14  8  1  0
M  END
>  <inchikey>  (478) 
KPRSBCKKEWIBCN-UHFFFAOYSA-N

>  <tags>  (478) 
fragmenstein_placed,CpKRS_FrAncestor_bulkdock_iter2

>  <ref_pdb>  (478) 
x0602b

>  <energy_score>  (478) 
-291.74499

>  <distance_score>  (478) 
0.215321

>  <HIPPO Pose ID>  (478) 
55121

>  <ref_mols>  (478) 
x0639c

>  <smiles>  (478) 
C#CCNS(=O)(=O)c1c(C)cccc1C

>  <HIPPO Compound ID>  (478) 
311512

>  <alias>  (478) 
KPRSBCKKEWIBCN-UHFFFAOYSA-N-P54

>  <subsites>  (478) 


>  <placement_batch>  (478) 
CpKRS_FrAncestor_bulkdock_iter2

>  <name>  (478) 
KPRSBCKKEWIBCN-UHFFFAOYSA-N-P54

$$$$
XLLGMINCXGRVHM-UHFFFAOYSA-N-P54
     RDKit          3D

 15 15  0  0  0  0  0  0  0  0999 V2000
    8.1964  -38.9165    5.8965 C   0  0  0  0  0  0  0  0  0  0  0  0
    7.4670  -38.4743    6.7424 C   0  0  0  0  0  0  0  0  0  0  0  0
    6.5791  -37.9314    7.7773 C   0  0  0  0  0  0  0  0  0  0  0  0
    7.2181  -36.7750    8.3827 N   0  0  0  0  0  0  0  0  0  0  0  0
    6.6019  -36.2076    9.8204 S   0  0  0  0  0  0  0  0  0  0  0  0
    7.1818  -34.9040   10.0686 O   0  0  0  0  0  0  0  0  0  0  0  0
    5.1652  -36.3777    9.7879 O   0  0  0  0  0  0  0  0  0  0  0  0
    7.2877  -37.3302   11.0249 C   0  0  0  0  0  0  0  0  0  0  0  0
    6.3908  -38.1648   11.7151 C   0  0  0  0  0  0  0  0  0  0  0  0
    6.8411  -38.9878   12.7512 C   0  0  0  0  0  0  0  0  0  0  0  0
    5.8806  -39.8307   13.5361 C   0  0  0  0  0  0  0  0  0  0  0  0
    8.1912  -38.9488   13.1038 C   0  0  0  0  0  0  0  0  0  0  0  0
    9.0857  -38.1273   12.4134 C   0  0  0  0  0  0  0  0  0  0  0  0
    8.6554  -37.3105   11.3569 C   0  0  0  0  0  0  0  0  0  0  0  0
    9.6641  -36.4150   10.6946 C   0  0  0  0  0  0  0  0  0  0  0  0
  1  2  3  0
  2  3  1  0
  3  4  1  0
  4  5  1  0
  5  6  2  0
  5  7  2  0
  5  8  1  0
  8  9  2  0
  9 10  1  0
 10 11  1  0
 10 12  2  0
 12 13  1  0
 13 14  2  0
 14 15  1  0
 14  8  1  0
M  END
>  <inchikey>  (479) 
XLLGMINCXGRVHM-UHFFFAOYSA-N

>  <tags>  (479) 
fragmenstein_placed,CpKRS_FrAncestor_bulkdock_iter2

>  <ref_pdb>  (479) 
x0602b

>  <energy_score>  (479) 
-36.718354

>  <distance_score>  (479) 
0.210157

>  <HIPPO Pose ID>  (479) 
55124

>  <ref_mols>  (479) 
x0639c

>  <smiles>  (479) 
C#CCNS(=O)(=O)c1cc(C)ccc1C

>  <HIPPO Compound ID>  (479) 
311357

>  <alias>  (479) 
XLLGMINCXGRVHM-UHFFFAOYSA-N-P54

>  <subsites>  (479) 


>  <placement_batch>  (479) 
CpKRS_FrAncestor_bulkdock_iter2

>  <name>  (479) 
XLLGMINCXGRVHM-UHFFFAOYSA-N-P54

$$$$
WFHNPCXUWVXQBX-UHFFFAOYSA-N-P54
     RDKit          3D

 15 15  0  0  0  0  0  0  0  0999 V2000
    7.3963  -38.4629    5.4521 C   0  0  0  0  0  0  0  0  0  0  0  0
    7.5619  -38.4811    6.7816 C   0  0  0  0  0  0  0  0  0  0  0  0
    6.5844  -37.9279    7.7702 C   0  0  0  0  0  0  0  0  0  0  0  0
    7.2272  -36.7777    8.3807 N   0  0  0  0  0  0  0  0  0  0  0  0
    6.5998  -36.1995    9.8140 S   0  0  0  0  0  0  0  0  0  0  0  0
    5.1618  -36.3553    9.7707 O   0  0  0  0  0  0  0  0  0  0  0  0
    7.1907  -34.9015   10.0662 O   0  0  0  0  0  0  0  0  0  0  0  0
    7.2659  -37.3280   11.0242 C   0  0  0  0  0  0  0  0  0  0  0  0
    6.3565  -38.1610   11.6995 C   0  0  0  0  0  0  0  0  0  0  0  0
    6.7863  -38.9762   12.7503 C   0  0  0  0  0  0  0  0  0  0  0  0
    5.8214  -39.8678   13.4732 C   0  0  0  0  0  0  0  0  0  0  0  0
    8.1377  -38.9685   13.0997 C   0  0  0  0  0  0  0  0  0  0  0  0
    9.0449  -38.1489   12.4233 C   0  0  0  0  0  0  0  0  0  0  0  0
    8.6300  -37.3182   11.3713 C   0  0  0  0  0  0  0  0  0  0  0  0
    9.6509  -36.4250   10.7246 C   0  0  0  0  0  0  0  0  0  0  0  0
  1  2  2  0
  2  3  1  0
  3  4  1  0
  4  5  1  0
  5  6  2  0
  5  7  2  0
  5  8  1  0
  8  9  2  0
  9 10  1  0
 10 11  1  0
 10 12  2  0
 12 13  1  0
 13 14  2  0
 14 15  1  0
 14  8  1  0
M  END
>  <inchikey>  (480) 
WFHNPCXUWVXQBX-UHFFFAOYSA-N

>  <tags>  (480) 
fragmenstein_placed,CpKRS_FrAncestor_bulkdock_iter2

>  <ref_pdb>  (480) 
x0602b

>  <energy_score>  (480) 
-28.072572

>  <distance_score>  (480) 
0.212208

>  <HIPPO Pose ID>  (480) 
55127

>  <ref_mols>  (480) 
x0639c

>  <smiles>  (480) 
C=CCNS(=O)(=O)c1cc(C)ccc1C

>  <HIPPO Compound ID>  (480) 
450657

>  <alias>  (480) 
WFHNPCXUWVXQBX-UHFFFAOYSA-N-P54

>  <subsites>  (480) 


>  <placement_batch>  (480) 
CpKRS_FrAncestor_bulkdock_iter2

>  <name>  (480) 
WFHNPCXUWVXQBX-UHFFFAOYSA-N-P54

$$$$
HKSVWGSLVPBYEF-UHFFFAOYSA-N-P54
     RDKit          3D

 15 15  0  0  0  0  0  0  0  0999 V2000
    7.9295  -37.8028    5.5897 C   0  0  0  0  0  0  0  0  0  0  0  0
    7.5998  -38.6245    6.8281 C   0  0  0  0  0  0  0  0  0  0  0  0
    6.6048  -37.9339    7.7584 C   0  0  0  0  0  0  0  0  0  0  0  0
    7.2333  -36.7736    8.3900 N   0  0  0  0  0  0  0  0  0  0  0  0
    6.5901  -36.1918    9.8232 S   0  0  0  0  0  0  0  0  0  0  0  0
    5.1516  -36.2819    9.7200 O   0  0  0  0  0  0  0  0  0  0  0  0
    7.2105  -34.9083   10.0847 O   0  0  0  0  0  0  0  0  0  0  0  0
    7.2286  -37.3498   11.0452 C   0  0  0  0  0  0  0  0  0  0  0  0
    8.6153  -37.3179   11.3549 C   0  0  0  0  0  0  0  0  0  0  0  0
    9.6171  -36.4199   10.6762 C   0  0  0  0  0  0  0  0  0  0  0  0
    9.0948  -38.1223   12.4017 C   0  0  0  0  0  0  0  0  0  0  0  0
    8.2408  -38.9521   13.1164 C   0  0  0  0  0  0  0  0  0  0  0  0
    6.8899  -39.0001   12.7956 C   0  0  0  0  0  0  0  0  0  0  0  0
    6.3578  -38.2100   11.7616 C   0  0  0  0  0  0  0  0  0  0  0  0
    4.8770  -38.3223   11.5234 C   0  0  0  0  0  0  0  0  0  0  0  0
  1  2  1  0
  2  3  1  0
  3  4  1  0
  4  5  1  0
  5  6  2  0
  5  7  2  0
  5  8  1  0
  8  9  2  0
  9 10  1  0
  9 11  1  0
 11 12  2  0
 12 13  1  0
 13 14  2  0
 14 15  1  0
 14  8  1  0
M  END
>  <inchikey>  (481) 
HKSVWGSLVPBYEF-UHFFFAOYSA-N

>  <tags>  (481) 
fragmenstein_placed,CpKRS_FrAncestor_bulkdock_iter2

>  <ref_pdb>  (481) 
x0602b

>  <energy_score>  (481) 
-42.20466

>  <distance_score>  (481) 
0.213937

>  <HIPPO Pose ID>  (481) 
55130

>  <ref_mols>  (481) 
x0639c

>  <smiles>  (481) 
CCCNS(=O)(=O)c1c(C)cccc1C

>  <HIPPO Compound ID>  (481) 
450658

>  <alias>  (481) 
HKSVWGSLVPBYEF-UHFFFAOYSA-N-P54

>  <subsites>  (481) 


>  <placement_batch>  (481) 
CpKRS_FrAncestor_bulkdock_iter2

>  <name>  (481) 
HKSVWGSLVPBYEF-UHFFFAOYSA-N-P54

$$$$
PYNUITJQALNINO-UHFFFAOYSA-N-P54
     RDKit          3D

 15 15  0  0  0  0  0  0  0  0999 V2000
    8.0892  -37.9260    5.7272 C   0  0  0  0  0  0  0  0  0  0  0  0
    6.7109  -38.0628    6.3594 C   0  0  0  0  0  0  0  0  0  0  0  0
    6.7431  -37.9967    7.8849 C   0  0  0  0  0  0  0  0  0  0  0  0
    7.0732  -36.6399    8.3216 N   0  0  0  0  0  0  0  0  0  0  0  0
    6.5820  -36.1163    9.8320 S   0  0  0  0  0  0  0  0  0  0  0  0
    7.2222  -34.8442   10.0928 O   0  0  0  0  0  0  0  0  0  0  0  0
    5.1420  -36.2414    9.9030 O   0  0  0  0  0  0  0  0  0  0  0  0
    7.2959  -37.3193   10.9425 C   0  0  0  0  0  0  0  0  0  0  0  0
    6.4208  -38.2225   11.5664 C   0  0  0  0  0  0  0  0  0  0  0  0
    6.9061  -39.1457   12.4905 C   0  0  0  0  0  0  0  0  0  0  0  0
    8.2640  -39.1675   12.8123 C   0  0  0  0  0  0  0  0  0  0  0  0
    8.8094  -40.1820   13.7747 C   0  0  0  0  0  0  0  0  0  0  0  0
    9.1316  -38.2574   12.1929 C   0  0  0  0  0  0  0  0  0  0  0  0
    8.6696  -37.3249   11.2483 C   0  0  0  0  0  0  0  0  0  0  0  0
    9.6634  -36.3610   10.6647 C   0  0  0  0  0  0  0  0  0  0  0  0
  1  2  1  0
  2  3  1  0
  3  4  1  0
  4  5  1  0
  5  6  2  0
  5  7  2  0
  5  8  1  0
  8  9  2  0
  9 10  1  0
 10 11  2  0
 11 12  1  0
 11 13  1  0
 13 14  2  0
 14 15  1  0
 14  8  1  0
M  END
>  <inchikey>  (482) 
PYNUITJQALNINO-UHFFFAOYSA-N

>  <tags>  (482) 
fragmenstein_placed,CpKRS_FrAncestor_bulkdock_iter2

>  <ref_pdb>  (482) 
x0602b

>  <energy_score>  (482) 
-39.195326

>  <distance_score>  (482) 
0.283002

>  <HIPPO Pose ID>  (482) 
55133

>  <ref_mols>  (482) 
x0639c

>  <smiles>  (482) 
CCCNS(=O)(=O)c1ccc(C)cc1C

>  <HIPPO Compound ID>  (482) 
450659

>  <alias>  (482) 
PYNUITJQALNINO-UHFFFAOYSA-N-P54

>  <subsites>  (482) 


>  <placement_batch>  (482) 
CpKRS_FrAncestor_bulkdock_iter2

>  <name>  (482) 
PYNUITJQALNINO-UHFFFAOYSA-N-P54

$$$$
FRXQEIXUBGNNCH-UHFFFAOYSA-N-P54
     RDKit          3D

 15 15  0  0  0  0  0  0  0  0999 V2000
    7.0192  -39.8184    6.1321 C   0  0  0  0  0  0  0  0  0  0  0  0
    7.6027  -38.5887    6.8082 C   0  0  0  0  0  0  0  0  0  0  0  0
    6.6005  -37.9457    7.7622 C   0  0  0  0  0  0  0  0  0  0  0  0
    7.2210  -36.7727    8.3772 N   0  0  0  0  0  0  0  0  0  0  0  0
    6.5978  -36.1956    9.8174 S   0  0  0  0  0  0  0  0  0  0  0  0
    5.1594  -36.3479    9.7765 O   0  0  0  0  0  0  0  0  0  0  0  0
    7.1929  -34.8989   10.0666 O   0  0  0  0  0  0  0  0  0  0  0  0
    7.2655  -37.3270   11.0237 C   0  0  0  0  0  0  0  0  0  0  0  0
    6.3565  -38.1606   11.6989 C   0  0  0  0  0  0  0  0  0  0  0  0
    6.7867  -38.9767   12.7487 C   0  0  0  0  0  0  0  0  0  0  0  0
    5.8219  -39.8687   13.4714 C   0  0  0  0  0  0  0  0  0  0  0  0
    8.1383  -38.9696   13.0974 C   0  0  0  0  0  0  0  0  0  0  0  0
    9.0452  -38.1498   12.4208 C   0  0  0  0  0  0  0  0  0  0  0  0
    8.6298  -37.3182   11.3698 C   0  0  0  0  0  0  0  0  0  0  0  0
    9.6505  -36.4251   10.7227 C   0  0  0  0  0  0  0  0  0  0  0  0
  1  2  1  0
  2  3  1  0
  3  4  1  0
  4  5  1  0
  5  6  2  0
  5  7  2  0
  5  8  1  0
  8  9  2  0
  9 10  1  0
 10 11  1  0
 10 12  2  0
 12 13  1  0
 13 14  2  0
 14 15  1  0
 14  8  1  0
M  END
>  <inchikey>  (483) 
FRXQEIXUBGNNCH-UHFFFAOYSA-N

>  <tags>  (483) 
fragmenstein_placed,CpKRS_FrAncestor_bulkdock_iter2

>  <ref_pdb>  (483) 
x0602b

>  <energy_score>  (483) 
-48.835206

>  <distance_score>  (483) 
0.210354

>  <HIPPO Pose ID>  (483) 
55136

>  <ref_mols>  (483) 
x0639c

>  <smiles>  (483) 
CCCNS(=O)(=O)c1cc(C)ccc1C

>  <HIPPO Compound ID>  (483) 
450660

>  <alias>  (483) 
FRXQEIXUBGNNCH-UHFFFAOYSA-N-P54

>  <subsites>  (483) 


>  <placement_batch>  (483) 
CpKRS_FrAncestor_bulkdock_iter2

>  <name>  (483) 
FRXQEIXUBGNNCH-UHFFFAOYSA-N-P54

$$$$
NEVZNDZAOBAPNN-UHFFFAOYSA-N-P54
     RDKit          3D

 15 15  0  0  0  0  0  0  0  0999 V2000
    6.4558  -37.0660    5.4273 C   0  0  0  0  0  0  0  0  0  0  0  0
    5.7564  -37.7054    6.6186 C   0  0  0  0  0  0  0  0  0  0  0  0
    6.7022  -37.9953    7.7802 C   0  0  0  0  0  0  0  0  0  0  0  0
    7.1906  -36.7539    8.3670 N   0  0  0  0  0  0  0  0  0  0  0  0
    6.5929  -36.1866    9.8110 S   0  0  0  0  0  0  0  0  0  0  0  0
    7.2015  -34.8982   10.0711 O   0  0  0  0  0  0  0  0  0  0  0  0
    5.1523  -36.3231    9.7864 O   0  0  0  0  0  0  0  0  0  0  0  0
    7.2513  -37.3413   11.0084 C   0  0  0  0  0  0  0  0  0  0  0  0
    6.3300  -38.2024   11.6265 C   0  0  0  0  0  0  0  0  0  0  0  0
    6.7355  -39.0263   12.6681 C   0  0  0  0  0  0  0  0  0  0  0  0
    8.0521  -38.9757   13.1120 C   0  0  0  0  0  0  0  0  0  0  0  0
    8.9890  -38.1165   12.5130 C   0  0  0  0  0  0  0  0  0  0  0  0
   10.3805  -38.0779   13.0912 C   0  0  0  0  0  0  0  0  0  0  0  0
    8.6056  -37.3070   11.4163 C   0  0  0  0  0  0  0  0  0  0  0  0
    9.6146  -36.3856   10.7792 C   0  0  0  0  0  0  0  0  0  0  0  0
  1  2  1  0
  2  3  1  0
  3  4  1  0
  4  5  1  0
  5  6  2  0
  5  7  2  0
  5  8  1  0
  8  9  2  0
  9 10  1  0
 10 11  2  0
 11 12  1  0
 12 13  1  0
 12 14  2  0
 14 15  1  0
 14  8  1  0
M  END
>  <inchikey>  (484) 
NEVZNDZAOBAPNN-UHFFFAOYSA-N

>  <tags>  (484) 
fragmenstein_placed,CpKRS_FrAncestor_bulkdock_iter2

>  <ref_pdb>  (484) 
x0602b

>  <energy_score>  (484) 
-30.876723

>  <distance_score>  (484) 
0.218772

>  <HIPPO Pose ID>  (484) 
55139

>  <ref_mols>  (484) 
x0639c

>  <smiles>  (484) 
CCCNS(=O)(=O)c1cccc(C)c1C

>  <HIPPO Compound ID>  (484) 
450661

>  <alias>  (484) 
NEVZNDZAOBAPNN-UHFFFAOYSA-N-P54

>  <subsites>  (484) 


>  <placement_batch>  (484) 
CpKRS_FrAncestor_bulkdock_iter2

>  <name>  (484) 
NEVZNDZAOBAPNN-UHFFFAOYSA-N-P54

$$$$
MTKJXUKBEVQSLO-UHFFFAOYSA-N-P54
     RDKit          3D

 15 15  0  0  0  0  0  0  0  0999 V2000
    7.3091  -38.3979    5.3656 C   0  0  0  0  0  0  0  0  0  0  0  0
    7.0193  -38.2545    6.5225 C   0  0  0  0  0  0  0  0  0  0  0  0
    6.6664  -38.0748    7.9360 C   0  0  0  0  0  0  0  0  0  0  0  0
    7.1160  -36.7656    8.3723 N   0  0  0  0  0  0  0  0  0  0  0  0
    6.6116  -36.1803    9.8442 S   0  0  0  0  0  0  0  0  0  0  0  0
    5.1682  -36.2307    9.8730 O   0  0  0  0  0  0  0  0  0  0  0  0
    7.2880  -34.9182   10.0682 O   0  0  0  0  0  0  0  0  0  0  0  0
    7.2796  -37.3417   11.0110 C   0  0  0  0  0  0  0  0  0  0  0  0
    8.6432  -37.3163   11.3796 C   0  0  0  0  0  0  0  0  0  0  0  0
    9.6658  -36.4040   10.7598 C   0  0  0  0  0  0  0  0  0  0  0  0
    9.0641  -38.1479   12.4332 C   0  0  0  0  0  0  0  0  0  0  0  0
    8.1698  -38.9959   13.0859 C   0  0  0  0  0  0  0  0  0  0  0  0
    6.8388  -39.0348   12.6904 C   0  0  0  0  0  0  0  0  0  0  0  0
    6.3990  -38.2096   11.6604 C   0  0  0  0  0  0  0  0  0  0  0  0
    5.1067  -38.2914   11.3209 F   0  0  0  0  0  0  0  0  0  0  0  0
  1  2  3  0
  2  3  1  0
  3  4  1  0
  4  5  1  0
  5  6  2  0
  5  7  2  0
  5  8  1  0
  8  9  2  0
  9 10  1  0
  9 11  1  0
 11 12  2  0
 12 13  1  0
 13 14  2  0
 14 15  1  0
 14  8  1  0
M  END
>  <inchikey>  (485) 
MTKJXUKBEVQSLO-UHFFFAOYSA-N

>  <tags>  (485) 
fragmenstein_placed,CpKRS_FrAncestor_bulkdock_iter2

>  <ref_pdb>  (485) 
x0602b

>  <energy_score>  (485) 
-20.242386

>  <distance_score>  (485) 
0.205015

>  <HIPPO Pose ID>  (485) 
55142

>  <ref_mols>  (485) 
x0639c

>  <smiles>  (485) 
C#CCNS(=O)(=O)c1c(C)cccc1F

>  <HIPPO Compound ID>  (485) 
311510

>  <alias>  (485) 
MTKJXUKBEVQSLO-UHFFFAOYSA-N-P54

>  <subsites>  (485) 


>  <placement_batch>  (485) 
CpKRS_FrAncestor_bulkdock_iter2

>  <name>  (485) 
MTKJXUKBEVQSLO-UHFFFAOYSA-N-P54

$$$$
PRUKMZZKNUFCKT-UHFFFAOYSA-N-P54
     RDKit          3D

 15 15  0  0  0  0  0  0  0  0999 V2000
    6.2650  -39.5013    5.8949 C   0  0  0  0  0  0  0  0  0  0  0  0
    6.6703  -38.1305    6.4112 C   0  0  0  0  0  0  0  0  0  0  0  0
    6.7105  -38.0961    7.9358 C   0  0  0  0  0  0  0  0  0  0  0  0
    7.1131  -36.7611    8.3700 N   0  0  0  0  0  0  0  0  0  0  0  0
    6.6067  -36.1738    9.8494 S   0  0  0  0  0  0  0  0  0  0  0  0
    5.1630  -36.2193    9.8765 O   0  0  0  0  0  0  0  0  0  0  0  0
    7.2870  -34.9127   10.0692 O   0  0  0  0  0  0  0  0  0  0  0  0
    7.2754  -37.3386   11.0116 C   0  0  0  0  0  0  0  0  0  0  0  0
    8.6407  -37.3184   11.3747 C   0  0  0  0  0  0  0  0  0  0  0  0
    9.6632  -36.4084   10.7517 C   0  0  0  0  0  0  0  0  0  0  0  0
    9.0635  -38.1526   12.4256 C   0  0  0  0  0  0  0  0  0  0  0  0
    8.1690  -38.9978   13.0815 C   0  0  0  0  0  0  0  0  0  0  0  0
    6.8360  -39.0306   12.6923 C   0  0  0  0  0  0  0  0  0  0  0  0
    6.3942  -38.2026   11.6651 C   0  0  0  0  0  0  0  0  0  0  0  0
    5.0980  -38.2744   11.3379 F   0  0  0  0  0  0  0  0  0  0  0  0
  1  2  1  0
  2  3  1  0
  3  4  1  0
  4  5  1  0
  5  6  2  0
  5  7  2  0
  5  8  1  0
  8  9  2  0
  9 10  1  0
  9 11  1  0
 11 12  2  0
 12 13  1  0
 13 14  2  0
 14 15  1  0
 14  8  1  0
M  END
>  <inchikey>  (486) 
PRUKMZZKNUFCKT-UHFFFAOYSA-N

>  <tags>  (486) 
fragmenstein_placed,CpKRS_FrAncestor_bulkdock_iter2

>  <ref_pdb>  (486) 
x0602b

>  <energy_score>  (486) 
-21.134768

>  <distance_score>  (486) 
0.203141

>  <HIPPO Pose ID>  (486) 
55145

>  <ref_mols>  (486) 
x0639c

>  <smiles>  (486) 
CCCNS(=O)(=O)c1c(C)cccc1F

>  <HIPPO Compound ID>  (486) 
450662

>  <alias>  (486) 
PRUKMZZKNUFCKT-UHFFFAOYSA-N-P54

>  <subsites>  (486) 


>  <placement_batch>  (486) 
CpKRS_FrAncestor_bulkdock_iter2

>  <name>  (486) 
PRUKMZZKNUFCKT-UHFFFAOYSA-N-P54

$$$$
PFQTZJFQHWIBHQ-UHFFFAOYSA-N-P54
     RDKit          3D

 15 15  0  0  0  0  0  0  0  0999 V2000
    4.4992  -43.6157   12.5050 C   0  0  0  0  0  0  0  0  0  0  0  0
    4.3491  -42.1981   13.0317 C   0  0  0  0  0  0  0  0  0  0  0  0
    4.4394  -41.1707   11.9070 C   0  0  0  0  0  0  0  0  0  0  0  0
    4.2894  -39.8269   12.4809 N   0  0  0  0  0  0  0  0  0  0  0  0
    4.7492  -38.5093   11.5341 S   0  0  0  0  0  0  0  0  0  0  0  0
    4.0747  -37.3704   12.1184 O   0  0  0  0  0  0  0  0  0  0  0  0
    4.5671  -38.9044   10.1564 O   0  0  0  0  0  0  0  0  0  0  0  0
    6.4779  -38.2886   11.8518 C   0  0  0  0  0  0  0  0  0  0  0  0
    7.0592  -38.9803   12.9257 C   0  0  0  0  0  0  0  0  0  0  0  0
    8.4097  -38.8176   13.2182 C   0  0  0  0  0  0  0  0  0  0  0  0
    9.1852  -37.9560   12.4513 C   0  0  0  0  0  0  0  0  0  0  0  0
    8.6123  -37.2480   11.3909 C   0  0  0  0  0  0  0  0  0  0  0  0
    9.6545  -36.1512   10.5462 Cl  0  0  0  0  0  0  0  0  0  0  0  0
    7.2501  -37.4087   11.0738 C   0  0  0  0  0  0  0  0  0  0  0  0
    6.4877  -36.3581    9.6690 Br  0  0  0  0  0  0  0  0  0  0  0  0
  1  2  1  0
  2  3  1  0
  3  4  1  0
  4  5  1  0
  5  6  2  0
  5  7  2  0
  5  8  1  0
  8  9  2  0
  9 10  1  0
 10 11  2  0
 11 12  1  0
 12 13  1  0
 12 14  2  0
 14 15  1  0
 14  8  1  0
M  END
>  <inchikey>  (487) 
PFQTZJFQHWIBHQ-UHFFFAOYSA-N

>  <tags>  (487) 
fragmenstein_placed,CpKRS_FrAncestor_bulkdock_iter2

>  <ref_pdb>  (487) 
x0602b

>  <energy_score>  (487) 
-17.591442

>  <distance_score>  (487) 
0.247877

>  <HIPPO Pose ID>  (487) 
55148

>  <ref_mols>  (487) 
x0639c

>  <smiles>  (487) 
CCCNS(=O)(=O)c1cccc(Cl)c1Br

>  <HIPPO Compound ID>  (487) 
450663

>  <alias>  (487) 
PFQTZJFQHWIBHQ-UHFFFAOYSA-N-P54

>  <subsites>  (487) 


>  <placement_batch>  (487) 
CpKRS_FrAncestor_bulkdock_iter2

>  <name>  (487) 
PFQTZJFQHWIBHQ-UHFFFAOYSA-N-P54

$$$$
SQZKSKQINQETNT-UHFFFAOYSA-N-P54
     RDKit          3D

 15 15  0  0  0  0  0  0  0  0999 V2000
    6.5134  -39.1812    8.4565 C   0  0  0  0  0  0  0  0  0  0  0  0
    6.7681  -37.9207    7.6459 C   0  0  0  0  0  0  0  0  0  0  0  0
    5.5531  -37.5080    6.8240 C   0  0  0  0  0  0  0  0  0  0  0  0
    7.2546  -36.7891    8.4451 N   0  0  0  0  0  0  0  0  0  0  0  0
    6.5918  -36.2701    9.8812 S   0  0  0  0  0  0  0  0  0  0  0  0
    5.1686  -36.5274    9.8614 O   0  0  0  0  0  0  0  0  0  0  0  0
    7.0774  -34.9285   10.1291 O   0  0  0  0  0  0  0  0  0  0  0  0
    7.3303  -37.3189   11.1088 C   0  0  0  0  0  0  0  0  0  0  0  0
    6.4756  -38.1418   11.8640 C   0  0  0  0  0  0  0  0  0  0  0  0
    6.9852  -38.9089   12.9068 C   0  0  0  0  0  0  0  0  0  0  0  0
    8.3442  -38.8523   13.2033 C   0  0  0  0  0  0  0  0  0  0  0  0
    9.1992  -38.0336   12.4578 C   0  0  0  0  0  0  0  0  0  0  0  0
   10.8735  -38.0333   12.9049 Cl  0  0  0  0  0  0  0  0  0  0  0  0
    8.7011  -37.2548   11.3993 C   0  0  0  0  0  0  0  0  0  0  0  0
    9.7920  -36.2560   10.4910 Cl  0  0  0  0  0  0  0  0  0  0  0  0
  1  2  1  0
  2  3  1  0
  2  4  1  0
  4  5  1  0
  5  6  2  0
  5  7  2  0
  5  8  1  0
  8  9  2  0
  9 10  1  0
 10 11  2  0
 11 12  1  0
 12 13  1  0
 12 14  2  0
 14 15  1  0
 14  8  1  0
M  END
>  <inchikey>  (488) 
SQZKSKQINQETNT-UHFFFAOYSA-N

>  <tags>  (488) 
fragmenstein_placed,CpKRS_FrAncestor_bulkdock_iter2

>  <ref_pdb>  (488) 
x0602b

>  <energy_score>  (488) 
-46.729055

>  <distance_score>  (488) 
0.251218

>  <HIPPO Pose ID>  (488) 
55151

>  <ref_mols>  (488) 
x0639c

>  <smiles>  (488) 
CC(C)NS(=O)(=O)c1cccc(Cl)c1Cl

>  <HIPPO Compound ID>  (488) 
312078

>  <alias>  (488) 
SQZKSKQINQETNT-UHFFFAOYSA-N-P54

>  <subsites>  (488) 


>  <placement_batch>  (488) 
CpKRS_FrAncestor_bulkdock_iter2

>  <name>  (488) 
SQZKSKQINQETNT-UHFFFAOYSA-N-P54

$$$$
MQTJZJZCCIZKSJ-UHFFFAOYSA-N-P54
     RDKit          3D

 15 15  0  0  0  0  0  0  0  0999 V2000
    6.8688  -39.5792    5.9158 C   0  0  0  0  0  0  0  0  0  0  0  0
    7.1140  -38.1757    6.4450 C   0  0  0  0  0  0  0  0  0  0  0  0
    6.9510  -38.1126    7.9607 C   0  0  0  0  0  0  0  0  0  0  0  0
    7.2062  -36.7439    8.4075 N   0  0  0  0  0  0  0  0  0  0  0  0
    6.5881  -36.2197    9.8673 S   0  0  0  0  0  0  0  0  0  0  0  0
    7.0957  -34.8903   10.1293 O   0  0  0  0  0  0  0  0  0  0  0  0
    5.1619  -36.4664    9.8597 O   0  0  0  0  0  0  0  0  0  0  0  0
    7.3164  -37.3135   11.0640 C   0  0  0  0  0  0  0  0  0  0  0  0
    6.4560  -38.1577   11.7870 C   0  0  0  0  0  0  0  0  0  0  0  0
    6.9550  -38.9376   12.8264 C   0  0  0  0  0  0  0  0  0  0  0  0
    8.3087  -38.8766   13.1473 C   0  0  0  0  0  0  0  0  0  0  0  0
    9.1714  -38.0464   12.4238 C   0  0  0  0  0  0  0  0  0  0  0  0
   10.8406  -38.0504   12.8875 Cl  0  0  0  0  0  0  0  0  0  0  0  0
    8.6841  -37.2547   11.3700 C   0  0  0  0  0  0  0  0  0  0  0  0
    9.7844  -36.2592   10.4695 Cl  0  0  0  0  0  0  0  0  0  0  0  0
  1  2  1  0
  2  3  1  0
  3  4  1  0
  4  5  1  0
  5  6  2  0
  5  7  2  0
  5  8  1  0
  8  9  2  0
  9 10  1  0
 10 11  2  0
 11 12  1  0
 12 13  1  0
 12 14  2  0
 14 15  1  0
 14  8  1  0
M  END
>  <inchikey>  (489) 
MQTJZJZCCIZKSJ-UHFFFAOYSA-N

>  <tags>  (489) 
fragmenstein_placed,CpKRS_FrAncestor_bulkdock_iter2

>  <ref_pdb>  (489) 
x0602b

>  <energy_score>  (489) 
-46.120073

>  <distance_score>  (489) 
0.20601

>  <HIPPO Pose ID>  (489) 
55154

>  <ref_mols>  (489) 
x0639c

>  <smiles>  (489) 
CCCNS(=O)(=O)c1cccc(Cl)c1Cl

>  <HIPPO Compound ID>  (489) 
450664

>  <alias>  (489) 
MQTJZJZCCIZKSJ-UHFFFAOYSA-N-P54

>  <subsites>  (489) 


>  <placement_batch>  (489) 
CpKRS_FrAncestor_bulkdock_iter2

>  <name>  (489) 
MQTJZJZCCIZKSJ-UHFFFAOYSA-N-P54

$$$$
VNEQGYVZEGAYBC-UHFFFAOYSA-N-P52
     RDKit          3D

 15 15  0  0  0  0  0  0  0  0999 V2000
   21.4126    6.5577   23.6285 C   0  0  0  0  0  0  0  0  0  0  0  0
   22.7112    6.1193   24.3043 C   0  0  0  0  0  0  0  0  0  0  0  0
   23.9597    6.5495   23.5333 C   0  0  0  0  0  0  0  0  0  0  0  0
   25.1803    6.5713   24.3602 N   0  0  0  0  0  0  0  0  0  0  0  0
   25.2842    7.6347   25.6491 S   0  0  0  0  0  0  0  0  0  0  0  0
   24.4591    7.1213   26.7132 O   0  0  0  0  0  0  0  0  0  0  0  0
   26.6960    7.8716   25.8736 O   0  0  0  0  0  0  0  0  0  0  0  0
   24.5910    9.1199   24.9126 C   0  0  0  0  0  0  0  0  0  0  0  0
   25.4837    9.7635   24.0274 C   0  0  0  0  0  0  0  0  0  0  0  0
   25.0248   10.7057   23.1248 C   0  0  0  0  0  0  0  0  0  0  0  0
   23.6714   10.9947   23.0934 C   0  0  0  0  0  0  0  0  0  0  0  0
   22.7892   10.4299   24.0197 C   0  0  0  0  0  0  0  0  0  0  0  0
   21.1243   10.8956   23.8907 Cl  0  0  0  0  0  0  0  0  0  0  0  0
   23.2303    9.5067   24.9889 C   0  0  0  0  0  0  0  0  0  0  0  0
   22.2263    9.0289   26.0078 C   0  0  0  0  0  0  0  0  0  0  0  0
  1  2  1  0
  2  3  1  0
  3  4  1  0
  4  5  1  0
  5  6  2  0
  5  7  2  0
  5  8  1  0
  8  9  2  0
  9 10  1  0
 10 11  2  0
 11 12  1  0
 12 13  1  0
 12 14  2  0
 14 15  1  0
 14  8  1  0
M  END
>  <inchikey>  (490) 
VNEQGYVZEGAYBC-UHFFFAOYSA-N

>  <tags>  (490) 
fragmenstein_placed,CpKRS_FrAncestor_bulkdock_iter2

>  <ref_pdb>  (490) 
x0602b

>  <energy_score>  (490) 
-32.072513

>  <distance_score>  (490) 
0.814619

>  <HIPPO Pose ID>  (490) 
55155

>  <ref_mols>  (490) 
x0639a

>  <smiles>  (490) 
CCCNS(=O)(=O)c1cccc(Cl)c1C

>  <HIPPO Compound ID>  (490) 
450665

>  <alias>  (490) 
VNEQGYVZEGAYBC-UHFFFAOYSA-N-P52

>  <subsites>  (490) 


>  <placement_batch>  (490) 
CpKRS_FrAncestor_bulkdock_iter2

>  <name>  (490) 
VNEQGYVZEGAYBC-UHFFFAOYSA-N-P52

$$$$
SDSVJEJSEUPENC-UHFFFAOYSA-N-P54
     RDKit          3D

 15 15  0  0  0  0  0  0  0  0999 V2000
    8.7785  -39.2799    7.6901 C   0  0  0  0  0  0  0  0  0  0  0  0
    7.6252  -38.6757    6.9003 C   0  0  0  0  0  0  0  0  0  0  0  0
    6.6041  -37.9763    7.7940 C   0  0  0  0  0  0  0  0  0  0  0  0
    7.2049  -36.7845    8.3911 N   0  0  0  0  0  0  0  0  0  0  0  0
    6.6110  -36.2162    9.8447 S   0  0  0  0  0  0  0  0  0  0  0  0
    5.1766  -36.4048    9.8490 O   0  0  0  0  0  0  0  0  0  0  0  0
    7.1791  -34.9048   10.0794 O   0  0  0  0  0  0  0  0  0  0  0  0
    7.3453  -37.3295   11.0378 C   0  0  0  0  0  0  0  0  0  0  0  0
    6.4635  -38.1915   11.7141 C   0  0  0  0  0  0  0  0  0  0  0  0
    6.9226  -38.9811   12.7605 C   0  0  0  0  0  0  0  0  0  0  0  0
    8.2551  -38.8990   13.1485 C   0  0  0  0  0  0  0  0  0  0  0  0
    9.1420  -38.0460   12.4766 C   0  0  0  0  0  0  0  0  0  0  0  0
   11.1043  -37.9783   13.2561 I   0  0  0  0  0  0  0  0  0  0  0  0
    8.7174  -37.2621   11.3822 C   0  0  0  0  0  0  0  0  0  0  0  0
    9.6780  -36.3457   10.6707 C   0  0  0  0  0  0  0  0  0  0  0  0
  1  2  1  0
  2  3  1  0
  3  4  1  0
  4  5  1  0
  5  6  2  0
  5  7  2  0
  5  8  1  0
  8  9  2  0
  9 10  1  0
 10 11  2  0
 11 12  1  0
 12 13  1  0
 12 14  2  0
 14 15  1  0
 14  8  1  0
M  END
>  <inchikey>  (491) 
SDSVJEJSEUPENC-UHFFFAOYSA-N

>  <tags>  (491) 
fragmenstein_placed,CpKRS_FrAncestor_bulkdock_iter2

>  <ref_pdb>  (491) 
x0602b

>  <energy_score>  (491) 
-54.128707

>  <distance_score>  (491) 
0.210118

>  <HIPPO Pose ID>  (491) 
55160

>  <ref_mols>  (491) 
x0639c

>  <smiles>  (491) 
CCCNS(=O)(=O)c1cccc(I)c1C

>  <HIPPO Compound ID>  (491) 
450666

>  <alias>  (491) 
SDSVJEJSEUPENC-UHFFFAOYSA-N-P54

>  <subsites>  (491) 


>  <placement_batch>  (491) 
CpKRS_FrAncestor_bulkdock_iter2

>  <name>  (491) 
SDSVJEJSEUPENC-UHFFFAOYSA-N-P54

$$$$
ZLIJDMJCDVSOAB-UHFFFAOYSA-N-P54
     RDKit          3D

 15 15  0  0  0  0  0  0  0  0999 V2000
    6.8000  -42.8970   16.6122 C   0  0  0  0  0  0  0  0  0  0  0  0
    7.8239  -42.3818   15.6107 C   0  0  0  0  0  0  0  0  0  0  0  0
    7.1853  -41.7013   14.4005 C   0  0  0  0  0  0  0  0  0  0  0  0
    6.4641  -40.4950   14.8219 N   0  0  0  0  0  0  0  0  0  0  0  0
    5.5990  -39.6198   13.6787 S   0  0  0  0  0  0  0  0  0  0  0  0
    4.9638  -40.5858   12.8094 O   0  0  0  0  0  0  0  0  0  0  0  0
    4.8467  -38.6113   14.3951 O   0  0  0  0  0  0  0  0  0  0  0  0
    6.7985  -38.7319   12.7128 C   0  0  0  0  0  0  0  0  0  0  0  0
    8.1227  -38.6216   13.1620 C   0  0  0  0  0  0  0  0  0  0  0  0
    9.0515  -37.8613   12.4477 C   0  0  0  0  0  0  0  0  0  0  0  0
    8.6616  -37.2114   11.2831 C   0  0  0  0  0  0  0  0  0  0  0  0
    9.7829  -36.2155   10.4429 Cl  0  0  0  0  0  0  0  0  0  0  0  0
    7.3540  -37.3240   10.8176 C   0  0  0  0  0  0  0  0  0  0  0  0
    6.4120  -38.0716   11.5384 C   0  0  0  0  0  0  0  0  0  0  0  0
    4.6368  -38.0311   10.8614 Br  0  0  0  0  0  0  0  0  0  0  0  0
  1  2  1  0
  2  3  1  0
  3  4  1  0
  4  5  1  0
  5  6  2  0
  5  7  2  0
  5  8  1  0
  8  9  2  0
  9 10  1  0
 10 11  2  0
 11 12  1  0
 11 13  1  0
 13 14  2  0
 14 15  1  0
 14  8  1  0
M  END
>  <inchikey>  (492) 
ZLIJDMJCDVSOAB-UHFFFAOYSA-N

>  <tags>  (492) 
fragmenstein_placed,CpKRS_FrAncestor_bulkdock_iter2

>  <ref_pdb>  (492) 
x0602b

>  <energy_score>  (492) 
-167.170566

>  <distance_score>  (492) 
0.39133

>  <HIPPO Pose ID>  (492) 
55163

>  <ref_mols>  (492) 
x0639c

>  <smiles>  (492) 
CCCNS(=O)(=O)c1ccc(Cl)cc1Br

>  <HIPPO Compound ID>  (492) 
450667

>  <alias>  (492) 
ZLIJDMJCDVSOAB-UHFFFAOYSA-N-P54

>  <subsites>  (492) 


>  <placement_batch>  (492) 
CpKRS_FrAncestor_bulkdock_iter2

>  <name>  (492) 
ZLIJDMJCDVSOAB-UHFFFAOYSA-N-P54

$$$$
POBCOPHDUAQZEW-UHFFFAOYSA-N-P54
     RDKit          3D

 15 15  0  0  0  0  0  0  0  0999 V2000
    7.2896  -37.7938    6.2512 C   0  0  0  0  0  0  0  0  0  0  0  0
    6.5975  -37.7694    7.6149 C   0  0  0  0  0  0  0  0  0  0  0  0
    6.7013  -39.1397    8.2696 C   0  0  0  0  0  0  0  0  0  0  0  0
    7.2426  -36.7253    8.4277 N   0  0  0  0  0  0  0  0  0  0  0  0
    6.5982  -36.2443    9.8955 S   0  0  0  0  0  0  0  0  0  0  0  0
    7.0885  -34.9102   10.1702 O   0  0  0  0  0  0  0  0  0  0  0  0
    5.1763  -36.5109    9.8798 O   0  0  0  0  0  0  0  0  0  0  0  0
    7.3619  -37.3368   11.0643 C   0  0  0  0  0  0  0  0  0  0  0  0
    6.5429  -38.2143   11.7948 C   0  0  0  0  0  0  0  0  0  0  0  0
    7.1138  -39.1122   12.6983 C   0  0  0  0  0  0  0  0  0  0  0  0
    8.4949  -39.1266   12.8751 C   0  0  0  0  0  0  0  0  0  0  0  0
    9.2231  -40.3139   13.8840 Cl  0  0  0  0  0  0  0  0  0  0  0  0
    9.3048  -38.2217   12.1923 C   0  0  0  0  0  0  0  0  0  0  0  0
    8.7420  -37.3183   11.2854 C   0  0  0  0  0  0  0  0  0  0  0  0
    9.8369  -36.2528   10.4807 Cl  0  0  0  0  0  0  0  0  0  0  0  0
  1  2  1  0
  2  3  1  0
  2  4  1  0
  4  5  1  0
  5  6  2  0
  5  7  2  0
  5  8  1  0
  8  9  2  0
  9 10  1  0
 10 11  2  0
 11 12  1  0
 11 13  1  0
 13 14  2  0
 14 15  1  0
 14  8  1  0
M  END
>  <inchikey>  (493) 
POBCOPHDUAQZEW-UHFFFAOYSA-N

>  <tags>  (493) 
fragmenstein_placed,CpKRS_FrAncestor_bulkdock_iter2

>  <ref_pdb>  (493) 
x0602b

>  <energy_score>  (493) 
-40.399686

>  <distance_score>  (493) 
0.3451

>  <HIPPO Pose ID>  (493) 
55166

>  <ref_mols>  (493) 
x0639c

>  <smiles>  (493) 
CC(C)NS(=O)(=O)c1ccc(Cl)cc1Cl

>  <HIPPO Compound ID>  (493) 
312126

>  <alias>  (493) 
POBCOPHDUAQZEW-UHFFFAOYSA-N-P54

>  <subsites>  (493) 


>  <placement_batch>  (493) 
CpKRS_FrAncestor_bulkdock_iter2

>  <name>  (493) 
POBCOPHDUAQZEW-UHFFFAOYSA-N-P54

$$$$
CESTZZDAAKDBQT-UHFFFAOYSA-N-P52
     RDKit          3D

 15 15  0  0  0  0  0  0  0  0999 V2000
   22.4185    7.9513   21.5528 C   0  0  0  0  0  0  0  0  0  0  0  0
   21.9887    7.3648   22.5096 C   0  0  0  0  0  0  0  0  0  0  0  0
   21.5241    6.6495   23.7065 C   0  0  0  0  0  0  0  0  0  0  0  0
   20.9788    7.5938   24.6698 N   0  0  0  0  0  0  0  0  0  0  0  0
   21.9781    8.3270   25.7759 S   0  0  0  0  0  0  0  0  0  0  0  0
   22.6816    7.2772   26.4836 O   0  0  0  0  0  0  0  0  0  0  0  0
   21.2022    9.3018   26.5088 O   0  0  0  0  0  0  0  0  0  0  0  0
   23.1738    9.1987   24.8014 C   0  0  0  0  0  0  0  0  0  0  0  0
   24.5169    8.7929   24.8779 C   0  0  0  0  0  0  0  0  0  0  0  0
   25.4886    9.4305   24.1076 C   0  0  0  0  0  0  0  0  0  0  0  0
   25.1182   10.4606   23.2513 C   0  0  0  0  0  0  0  0  0  0  0  0
   26.3075   11.2197   22.2696 Cl  0  0  0  0  0  0  0  0  0  0  0  0
   23.7873   10.8650   23.1704 C   0  0  0  0  0  0  0  0  0  0  0  0
   22.8062   10.2456   23.9543 C   0  0  0  0  0  0  0  0  0  0  0  0
   21.1779   10.7879   23.7518 Cl  0  0  0  0  0  0  0  0  0  0  0  0
  1  2  3  0
  2  3  1  0
  3  4  1  0
  4  5  1  0
  5  6  2  0
  5  7  2  0
  5  8  1  0
  8  9  2  0
  9 10  1  0
 10 11  2  0
 11 12  1  0
 11 13  1  0
 13 14  2  0
 14 15  1  0
 14  8  1  0
M  END
>  <inchikey>  (494) 
CESTZZDAAKDBQT-UHFFFAOYSA-N

>  <tags>  (494) 
fragmenstein_placed,CpKRS_FrAncestor_bulkdock_iter2

>  <ref_pdb>  (494) 
x0602b

>  <energy_score>  (494) 
-209.752475

>  <distance_score>  (494) 
0.27696

>  <HIPPO Pose ID>  (494) 
55167

>  <ref_mols>  (494) 
x0639a

>  <smiles>  (494) 
C#CCNS(=O)(=O)c1ccc(Cl)cc1Cl

>  <HIPPO Compound ID>  (494) 
311453

>  <alias>  (494) 
CESTZZDAAKDBQT-UHFFFAOYSA-N-P52

>  <subsites>  (494) 


>  <placement_batch>  (494) 
CpKRS_FrAncestor_bulkdock_iter2

>  <name>  (494) 
CESTZZDAAKDBQT-UHFFFAOYSA-N-P52

$$$$
VZKPFIJGBYDFRD-UHFFFAOYSA-N-P54
     RDKit          3D

 15 15  0  0  0  0  0  0  0  0999 V2000
    8.8113  -39.1656    7.5894 C   0  0  0  0  0  0  0  0  0  0  0  0
    7.6600  -38.5192    6.8314 C   0  0  0  0  0  0  0  0  0  0  0  0
    6.6332  -37.8745    7.7587 C   0  0  0  0  0  0  0  0  0  0  0  0
    7.2228  -36.7133    8.4227 N   0  0  0  0  0  0  0  0  0  0  0  0
    6.6049  -36.2055    9.8876 S   0  0  0  0  0  0  0  0  0  0  0  0
    7.1232  -34.8831   10.1627 O   0  0  0  0  0  0  0  0  0  0  0  0
    5.1772  -36.4427    9.8773 O   0  0  0  0  0  0  0  0  0  0  0  0
    7.3487  -37.3329   11.0367 C   0  0  0  0  0  0  0  0  0  0  0  0
    6.5174  -38.2510   11.6997 C   0  0  0  0  0  0  0  0  0  0  0  0
    7.0667  -39.1663   12.5989 C   0  0  0  0  0  0  0  0  0  0  0  0
    8.4392  -39.1624   12.8342 C   0  0  0  0  0  0  0  0  0  0  0  0
    9.1420  -40.3662   13.8415 Cl  0  0  0  0  0  0  0  0  0  0  0  0
    9.2610  -38.2266   12.2099 C   0  0  0  0  0  0  0  0  0  0  0  0
    8.7198  -37.3043   11.3085 C   0  0  0  0  0  0  0  0  0  0  0  0
    9.8319  -36.2119   10.5661 Cl  0  0  0  0  0  0  0  0  0  0  0  0
  1  2  1  0
  2  3  1  0
  3  4  1  0
  4  5  1  0
  5  6  2  0
  5  7  2  0
  5  8  1  0
  8  9  2  0
  9 10  1  0
 10 11  2  0
 11 12  1  0
 11 13  1  0
 13 14  2  0
 14 15  1  0
 14  8  1  0
M  END
>  <inchikey>  (495) 
VZKPFIJGBYDFRD-UHFFFAOYSA-N

>  <tags>  (495) 
fragmenstein_placed,CpKRS_FrAncestor_bulkdock_iter2

>  <ref_pdb>  (495) 
x0602b

>  <energy_score>  (495) 
-38.735654

>  <distance_score>  (495) 
0.317096

>  <HIPPO Pose ID>  (495) 
55172

>  <ref_mols>  (495) 
x0639c

>  <smiles>  (495) 
CCCNS(=O)(=O)c1ccc(Cl)cc1Cl

>  <HIPPO Compound ID>  (495) 
450668

>  <alias>  (495) 
VZKPFIJGBYDFRD-UHFFFAOYSA-N-P54

>  <subsites>  (495) 


>  <placement_batch>  (495) 
CpKRS_FrAncestor_bulkdock_iter2

>  <name>  (495) 
VZKPFIJGBYDFRD-UHFFFAOYSA-N-P54

$$$$
NIBWMTXNEIKCOP-UHFFFAOYSA-N-P52
     RDKit          3D

 15 15  0  0  0  0  0  0  0  0999 V2000
   28.6716   13.1177   23.3077 C   0  0  0  0  0  0  0  0  0  0  0  0
   29.2916   12.2445   24.3869 C   0  0  0  0  0  0  0  0  0  0  0  0
   28.3986   11.0912   24.8382 C   0  0  0  0  0  0  0  0  0  0  0  0
   28.1471   10.1621   23.7357 N   0  0  0  0  0  0  0  0  0  0  0  0
   27.1795    8.8225   24.0190 S   0  0  0  0  0  0  0  0  0  0  0  0
   27.3966    8.4216   25.3949 O   0  0  0  0  0  0  0  0  0  0  0  0
   27.4093    7.9058   22.9249 O   0  0  0  0  0  0  0  0  0  0  0  0
   25.4940    9.3920   23.8739 C   0  0  0  0  0  0  0  0  0  0  0  0
   24.5840    8.9152   24.8352 C   0  0  0  0  0  0  0  0  0  0  0  0
   23.2404    9.2925   24.7964 C   0  0  0  0  0  0  0  0  0  0  0  0
   22.8031   10.1518   23.7985 C   0  0  0  0  0  0  0  0  0  0  0  0
   21.1541   10.6353   23.7423 Cl  0  0  0  0  0  0  0  0  0  0  0  0
   23.6972   10.6191   22.8365 C   0  0  0  0  0  0  0  0  0  0  0  0
   25.0506   10.2329   22.8406 C   0  0  0  0  0  0  0  0  0  0  0  0
   25.9294   10.7690   21.7472 C   0  0  0  0  0  0  0  0  0  0  0  0
  1  2  1  0
  2  3  1  0
  3  4  1  0
  4  5  1  0
  5  6  2  0
  5  7  2  0
  5  8  1  0
  8  9  2  0
  9 10  1  0
 10 11  2  0
 11 12  1  0
 11 13  1  0
 13 14  2  0
 14 15  1  0
 14  8  1  0
M  END
>  <inchikey>  (496) 
NIBWMTXNEIKCOP-UHFFFAOYSA-N

>  <tags>  (496) 
fragmenstein_placed,CpKRS_FrAncestor_bulkdock_iter2

>  <ref_pdb>  (496) 
x0602b

>  <energy_score>  (496) 
-38.971033

>  <distance_score>  (496) 
0.464195

>  <HIPPO Pose ID>  (496) 
55173

>  <ref_mols>  (496) 
x0639a

>  <smiles>  (496) 
CCCNS(=O)(=O)c1ccc(Cl)cc1C

>  <HIPPO Compound ID>  (496) 
450669

>  <alias>  (496) 
NIBWMTXNEIKCOP-UHFFFAOYSA-N-P52

>  <subsites>  (496) 


>  <placement_batch>  (496) 
CpKRS_FrAncestor_bulkdock_iter2

>  <name>  (496) 
NIBWMTXNEIKCOP-UHFFFAOYSA-N-P52

$$$$
SMFLXMLYZPBIPI-UHFFFAOYSA-N-P54
     RDKit          3D

 15 15  0  0  0  0  0  0  0  0999 V2000
    6.8917  -42.8938   16.6248 C   0  0  0  0  0  0  0  0  0  0  0  0
    7.8930  -42.3719   15.6042 C   0  0  0  0  0  0  0  0  0  0  0  0
    7.2271  -41.7098   14.3986 C   0  0  0  0  0  0  0  0  0  0  0  0
    6.4925  -40.5123   14.8212 N   0  0  0  0  0  0  0  0  0  0  0  0
    5.6095  -39.6502   13.6823 S   0  0  0  0  0  0  0  0  0  0  0  0
    4.9833  -40.6289   12.8205 O   0  0  0  0  0  0  0  0  0  0  0  0
    4.8475  -38.6521   14.4032 O   0  0  0  0  0  0  0  0  0  0  0  0
    6.7909  -38.7442   12.7049 C   0  0  0  0  0  0  0  0  0  0  0  0
    8.1145  -38.6234   13.1579 C   0  0  0  0  0  0  0  0  0  0  0  0
    9.0438  -37.8587   12.4493 C   0  0  0  0  0  0  0  0  0  0  0  0
    8.6572  -37.2113   11.2837 C   0  0  0  0  0  0  0  0  0  0  0  0
    9.7783  -36.2110   10.4483 Cl  0  0  0  0  0  0  0  0  0  0  0  0
    7.3518  -37.3300   10.8125 C   0  0  0  0  0  0  0  0  0  0  0  0
    6.4060  -38.0833   11.5277 C   0  0  0  0  0  0  0  0  0  0  0  0
    4.4552  -38.0225   10.7419 I   0  0  0  0  0  0  0  0  0  0  0  0
  1  2  1  0
  2  3  1  0
  3  4  1  0
  4  5  1  0
  5  6  2  0
  5  7  2  0
  5  8  1  0
  8  9  2  0
  9 10  1  0
 10 11  2  0
 11 12  1  0
 11 13  1  0
 13 14  2  0
 14 15  1  0
 14  8  1  0
M  END
>  <inchikey>  (497) 
SMFLXMLYZPBIPI-UHFFFAOYSA-N

>  <tags>  (497) 
fragmenstein_placed,CpKRS_FrAncestor_bulkdock_iter2

>  <ref_pdb>  (497) 
x0602b

>  <energy_score>  (497) 
-22.648674

>  <distance_score>  (497) 
0.39456

>  <HIPPO Pose ID>  (497) 
55178

>  <ref_mols>  (497) 
x0639c

>  <smiles>  (497) 
CCCNS(=O)(=O)c1ccc(Cl)cc1I

>  <HIPPO Compound ID>  (497) 
450670

>  <alias>  (497) 
SMFLXMLYZPBIPI-UHFFFAOYSA-N-P54

>  <subsites>  (497) 


>  <placement_batch>  (497) 
CpKRS_FrAncestor_bulkdock_iter2

>  <name>  (497) 
SMFLXMLYZPBIPI-UHFFFAOYSA-N-P54

$$$$
MFSMJCXBRIYZJH-UHFFFAOYSA-N-P27
     RDKit          3D

 16 16  0  0  0  0  0  0  0  0999 V2000
   20.6941   20.7564   28.7386 C   0  0  0  0  0  0  0  0  0  0  0  0
   21.4370   20.9280   27.4243 C   0  0  0  0  0  0  0  0  0  0  0  0
   22.9446   20.9303   27.6589 C   0  0  0  0  0  0  0  0  0  0  0  0
   21.0779   22.2008   26.7678 N   0  0  0  0  0  0  0  0  0  0  0  0
   19.5455   22.3462   26.0677 S   0  0  0  0  0  0  0  0  0  0  0  0
   19.0611   21.0151   25.7951 O   0  0  0  0  0  0  0  0  0  0  0  0
   19.7290   23.3247   25.0123 O   0  0  0  0  0  0  0  0  0  0  0  0
   18.5887   23.0919   27.3923 C   0  0  0  0  0  0  0  0  0  0  0  0
   17.1777   23.3330   26.9223 C   0  0  0  0  0  0  0  0  0  0  0  0
   16.6494   24.6283   26.9257 C   0  0  0  0  0  0  0  0  0  0  0  0
   15.3174   24.8508   26.5725 C   0  0  0  0  0  0  0  0  0  0  0  0
   14.4868   23.7850   26.2080 C   0  0  0  0  0  0  0  0  0  0  0  0
   13.0188   23.9949   25.9780 C   0  0  0  0  0  0  0  0  0  0  0  0
   12.7587   24.9328   24.8979 N   0  0  0  0  0  0  0  0  0  0  0  0
   15.0261   22.4985   26.1498 C   0  0  0  0  0  0  0  0  0  0  0  0
   16.3495   22.2725   26.5247 C   0  0  0  0  0  0  0  0  0  0  0  0
  1  2  1  0
  2  3  1  0
  2  4  1  0
  4  5  1  0
  5  6  2  0
  5  7  2  0
  5  8  1  0
  8  9  1  0
  9 10  2  0
 10 11  1  0
 11 12  2  0
 12 13  1  0
 13 14  1  0
 12 15  1  0
 15 16  2  0
 16  9  1  0
M  END
>  <inchikey>  (498) 
MFSMJCXBRIYZJH-UHFFFAOYSA-N

>  <tags>  (498) 
fragmenstein_placed,CpKRS_FrAncestor_bulkdock_iter2

>  <ref_pdb>  (498) 
x0602b

>  <energy_score>  (498) 
-31.799682

>  <distance_score>  (498) 
0.591879

>  <HIPPO Pose ID>  (498) 
55179

>  <ref_mols>  (498) 
x0483a

>  <smiles>  (498) 
CC(C)NS(=O)(=O)Cc1ccc(CN)cc1

>  <HIPPO Compound ID>  (498) 
450671

>  <alias>  (498) 
MFSMJCXBRIYZJH-UHFFFAOYSA-N-P27

>  <subsites>  (498) 


>  <placement_batch>  (498) 
CpKRS_FrAncestor_bulkdock_iter2

>  <name>  (498) 
MFSMJCXBRIYZJH-UHFFFAOYSA-N-P27

$$$$
HUKOIKVVYPAWSG-UHFFFAOYSA-N-P31
     RDKit          3D

 16 16  0  0  0  0  0  0  0  0999 V2000
    1.2970   14.3940   38.9494 C   0  0  0  0  0  0  0  0  0  0  0  0
    1.4070   13.8597   40.3718 C   0  0  0  0  0  0  0  0  0  0  0  0
    0.2577   12.9387   40.7377 C   0  0  0  0  0  0  0  0  0  0  0  0
    0.4101   11.6391   40.0675 N   0  0  0  0  0  0  0  0  0  0  0  0
    1.1811   10.3839   40.8835 S   0  0  0  0  0  0  0  0  0  0  0  0
    0.4633    9.1974   40.4776 O   0  0  0  0  0  0  0  0  0  0  0  0
    1.3409   10.7743   42.2640 O   0  0  0  0  0  0  0  0  0  0  0  0
    2.7881   10.2445   40.1527 C   0  0  0  0  0  0  0  0  0  0  0  0
    3.0216   10.7198   38.8628 C   0  0  0  0  0  0  0  0  0  0  0  0
    4.2592   10.4943   38.2622 C   0  0  0  0  0  0  0  0  0  0  0  0
    5.2616    9.8140   38.9612 C   0  0  0  0  0  0  0  0  0  0  0  0
    6.5385    9.6114   38.3218 N   0  0  0  0  0  0  0  0  0  0  0  0
    6.6222    9.5916   36.9098 O   0  0  0  0  0  0  0  0  0  0  0  0
    7.7160    9.5450   39.0884 O   0  0  0  0  0  0  0  0  0  0  0  0
    5.0416    9.3609   40.2644 C   0  0  0  0  0  0  0  0  0  0  0  0
    3.7950    9.5736   40.8605 C   0  0  0  0  0  0  0  0  0  0  0  0
  1  2  1  0
  2  3  1  0
  3  4  1  0
  4  5  1  0
  5  6  2  0
  5  7  2  0
  5  8  1  0
  8  9  2  0
  9 10  1  0
 10 11  2  0
 11 12  1  0
 12 13  2  0
 12 14  1  0
 11 15  1  0
 15 16  2  0
 16  8  1  0
M  CHG  1  12   1
M  END
>  <inchikey>  (499) 
HUKOIKVVYPAWSG-UHFFFAOYSA-N

>  <tags>  (499) 
fragmenstein_placed,CpKRS_FrAncestor_bulkdock_iter2

>  <ref_pdb>  (499) 
x0602b

>  <energy_score>  (499) 
-49.992734

>  <distance_score>  (499) 
0.583339

>  <HIPPO Pose ID>  (499) 
55181

>  <ref_mols>  (499) 
x0487b

>  <smiles>  (499) 
CCCNS(=O)(=O)c1ccc([N+](=O)O)cc1

>  <HIPPO Compound ID>  (499) 
450672

>  <alias>  (499) 
HUKOIKVVYPAWSG-UHFFFAOYSA-N-P31

>  <subsites>  (499) 


>  <placement_batch>  (499) 
CpKRS_FrAncestor_bulkdock_iter2

>  <name>  (499) 
HUKOIKVVYPAWSG-UHFFFAOYSA-N-P31

$$$$
WYXUETUYERGDAN-UHFFFAOYSA-N-P32
     RDKit          3D

 17 17  0  0  0  0  0  0  0  0999 V2000
    0.0359  -22.9875   12.7936 C   0  0  0  0  0  0  0  0  0  0  0  0
   -0.1255  -23.4597   14.2303 C   0  0  0  0  0  0  0  0  0  0  0  0
    0.8278  -24.5976   14.5565 C   0  0  0  0  0  0  0  0  0  0  0  0
    0.5419  -25.0847   15.9068 N   0  0  0  0  0  0  0  0  0  0  0  0
    1.5853  -26.2253   16.5334 S   0  0  0  0  0  0  0  0  0  0  0  0
    0.7516  -27.1498   17.2675 O   0  0  0  0  0  0  0  0  0  0  0  0
    2.4591  -26.6633   15.4675 O   0  0  0  0  0  0  0  0  0  0  0  0
    2.5389  -25.2810   17.6863 C   0  0  0  0  0  0  0  0  0  0  0  0
    2.4150  -25.5341   19.0531 C   0  0  0  0  0  0  0  0  0  0  0  0
    3.1410  -24.7616   19.9534 C   0  0  0  0  0  0  0  0  0  0  0  0
    3.9775  -23.7388   19.4808 C   0  0  0  0  0  0  0  0  0  0  0  0
    4.9310  -22.8605   20.6786 S   0  0  0  0  0  0  0  0  0  0  0  0
    6.3027  -22.3990   19.8611 N   0  0  0  0  0  0  0  0  0  0  0  0
    4.2345  -21.6612   21.0690 O   0  0  0  0  0  0  0  0  0  0  0  0
    5.3546  -23.8733   21.6146 O   0  0  0  0  0  0  0  0  0  0  0  0
    4.1313  -23.5102   18.1143 C   0  0  0  0  0  0  0  0  0  0  0  0
    3.4062  -24.2886   17.2129 C   0  0  0  0  0  0  0  0  0  0  0  0
  1  2  1  0
  2  3  1  0
  3  4  1  0
  4  5  1  0
  5  6  2  0
  5  7  2  0
  5  8  1  0
  8  9  2  0
  9 10  1  0
 10 11  2  0
 11 12  1  0
 12 13  1  0
 12 14  2  0
 12 15  2  0
 11 16  1  0
 16 17  2  0
 17  8  1  0
M  END
>  <inchikey>  (500) 
WYXUETUYERGDAN-UHFFFAOYSA-N

>  <tags>  (500) 
fragmenstein_placed,CpKRS_FrAncestor_bulkdock_iter2

>  <ref_pdb>  (500) 
x0602b

>  <energy_score>  (500) 
-50.614263

>  <distance_score>  (500) 
0.743413

>  <HIPPO Pose ID>  (500) 
55182

>  <ref_mols>  (500) 
x0487a

>  <smiles>  (500) 
CCCNS(=O)(=O)c1ccc(S(N)(=O)=O)cc1

>  <HIPPO Compound ID>  (500) 
450673

>  <alias>  (500) 
WYXUETUYERGDAN-UHFFFAOYSA-N-P32

>  <subsites>  (500) 


>  <placement_batch>  (500) 
CpKRS_FrAncestor_bulkdock_iter2

>  <name>  (500) 
WYXUETUYERGDAN-UHFFFAOYSA-N-P32

$$$$
NNZKQSKPHVAFJD-UHFFFAOYSA-N-P54
     RDKit          3D

 15 15  0  0  0  0  0  0  0  0999 V2000
    8.1148  -37.7008    5.6758 C   0  0  0  0  0  0  0  0  0  0  0  0
    7.7011  -38.5312    6.8827 C   0  0  0  0  0  0  0  0  0  0  0  0
    6.6297  -37.8564    7.7362 C   0  0  0  0  0  0  0  0  0  0  0  0
    7.1896  -36.6846    8.4061 N   0  0  0  0  0  0  0  0  0  0  0  0
    6.5744  -36.2040    9.8814 S   0  0  0  0  0  0  0  0  0  0  0  0
    5.1470  -36.4425    9.8673 O   0  0  0  0  0  0  0  0  0  0  0  0
    7.0918  -34.8849   10.1745 O   0  0  0  0  0  0  0  0  0  0  0  0
    7.3247  -37.3509   11.0104 C   0  0  0  0  0  0  0  0  0  0  0  0
    6.4856  -38.2609   11.6757 C   0  0  0  0  0  0  0  0  0  0  0  0
    7.0276  -39.2175   12.5360 C   0  0  0  0  0  0  0  0  0  0  0  0
    8.4055  -39.2628   12.7324 C   0  0  0  0  0  0  0  0  0  0  0  0
    9.2491  -40.7959   13.8573 I   0  0  0  0  0  0  0  0  0  0  0  0
    9.2382  -38.3287   12.1170 C   0  0  0  0  0  0  0  0  0  0  0  0
    8.7023  -37.3673   11.2512 C   0  0  0  0  0  0  0  0  0  0  0  0
    9.9528  -36.1924   10.4410 Br  0  0  0  0  0  0  0  0  0  0  0  0
  1  2  1  0
  2  3  1  0
  3  4  1  0
  4  5  1  0
  5  6  2  0
  5  7  2  0
  5  8  1  0
  8  9  2  0
  9 10  1  0
 10 11  2  0
 11 12  1  0
 11 13  1  0
 13 14  2  0
 14 15  1  0
 14  8  1  0
M  END
>  <inchikey>  (501) 
NNZKQSKPHVAFJD-UHFFFAOYSA-N

>  <tags>  (501) 
fragmenstein_placed,CpKRS_FrAncestor_bulkdock_iter2

>  <ref_pdb>  (501) 
x0602b

>  <energy_score>  (501) 
-39.959415

>  <distance_score>  (501) 
0.363217

>  <HIPPO Pose ID>  (501) 
55190

>  <ref_mols>  (501) 
x0639c

>  <smiles>  (501) 
CCCNS(=O)(=O)c1ccc(I)cc1Br

>  <HIPPO Compound ID>  (501) 
450676

>  <alias>  (501) 
NNZKQSKPHVAFJD-UHFFFAOYSA-N-P54

>  <subsites>  (501) 


>  <placement_batch>  (501) 
CpKRS_FrAncestor_bulkdock_iter2

>  <name>  (501) 
NNZKQSKPHVAFJD-UHFFFAOYSA-N-P54

$$$$
VZWYZPNSKRPDGZ-UHFFFAOYSA-N-P54
     RDKit          3D

 15 15  0  0  0  0  0  0  0  0999 V2000
    8.1043  -37.6779    5.6616 C   0  0  0  0  0  0  0  0  0  0  0  0
    7.7088  -38.5141    6.8706 C   0  0  0  0  0  0  0  0  0  0  0  0
    6.6442  -37.8472    7.7386 C   0  0  0  0  0  0  0  0  0  0  0  0
    7.2071  -36.6777    8.4099 N   0  0  0  0  0  0  0  0  0  0  0  0
    6.5946  -36.1972    9.8859 S   0  0  0  0  0  0  0  0  0  0  0  0
    7.1023  -34.8733   10.1735 O   0  0  0  0  0  0  0  0  0  0  0  0
    5.1690  -36.4477    9.8806 O   0  0  0  0  0  0  0  0  0  0  0  0
    7.3569  -37.3326   11.0132 C   0  0  0  0  0  0  0  0  0  0  0  0
    6.5390  -38.2619   11.6769 C   0  0  0  0  0  0  0  0  0  0  0  0
    7.1061  -39.2027   12.5384 C   0  0  0  0  0  0  0  0  0  0  0  0
    8.4854  -39.2111   12.7353 C   0  0  0  0  0  0  0  0  0  0  0  0
    9.3695  -40.7177   13.8648 I   0  0  0  0  0  0  0  0  0  0  0  0
    9.2940  -38.2564   12.1189 C   0  0  0  0  0  0  0  0  0  0  0  0
    8.7331  -37.3110   11.2537 C   0  0  0  0  0  0  0  0  0  0  0  0
    9.8291  -36.2049   10.5077 Cl  0  0  0  0  0  0  0  0  0  0  0  0
  1  2  1  0
  2  3  1  0
  3  4  1  0
  4  5  1  0
  5  6  2  0
  5  7  2  0
  5  8  1  0
  8  9  2  0
  9 10  1  0
 10 11  2  0
 11 12  1  0
 11 13  1  0
 13 14  2  0
 14 15  1  0
 14  8  1  0
M  END
>  <inchikey>  (502) 
VZWYZPNSKRPDGZ-UHFFFAOYSA-N

>  <tags>  (502) 
fragmenstein_placed,CpKRS_FrAncestor_bulkdock_iter2

>  <ref_pdb>  (502) 
x0602b

>  <energy_score>  (502) 
-36.92437

>  <distance_score>  (502) 
0.359114

>  <HIPPO Pose ID>  (502) 
55193

>  <ref_mols>  (502) 
x0639c

>  <smiles>  (502) 
CCCNS(=O)(=O)c1ccc(I)cc1Cl

>  <HIPPO Compound ID>  (502) 
450677

>  <alias>  (502) 
VZWYZPNSKRPDGZ-UHFFFAOYSA-N-P54

>  <subsites>  (502) 


>  <placement_batch>  (502) 
CpKRS_FrAncestor_bulkdock_iter2

>  <name>  (502) 
VZWYZPNSKRPDGZ-UHFFFAOYSA-N-P54

$$$$
OEAMRPPCYHZCOG-UHFFFAOYSA-N-P54
     RDKit          3D

 15 15  0  0  0  0  0  0  0  0999 V2000
    5.0816  -37.2551    6.1409 C   0  0  0  0  0  0  0  0  0  0  0  0
    4.9241  -36.6662    7.5330 C   0  0  0  0  0  0  0  0  0  0  0  0
    4.6743  -37.7525    8.5753 C   0  0  0  0  0  0  0  0  0  0  0  0
    4.5363  -37.1164    9.8959 N   0  0  0  0  0  0  0  0  0  0  0  0
    4.6079  -38.1231   11.2531 S   0  0  0  0  0  0  0  0  0  0  0  0
    4.2119  -39.4444   10.8257 O   0  0  0  0  0  0  0  0  0  0  0  0
    3.9096  -37.3840   12.2827 O   0  0  0  0  0  0  0  0  0  0  0  0
    6.3154  -38.1528   11.7139 C   0  0  0  0  0  0  0  0  0  0  0  0
    7.2397  -37.3617   11.0145 C   0  0  0  0  0  0  0  0  0  0  0  0
    8.5694  -37.3181   11.4285 C   0  0  0  0  0  0  0  0  0  0  0  0
    9.6762  -36.2818   10.6154 Cl  0  0  0  0  0  0  0  0  0  0  0  0
    8.9948  -38.0753   12.5136 C   0  0  0  0  0  0  0  0  0  0  0  0
    8.0795  -38.8771   13.1985 C   0  0  0  0  0  0  0  0  0  0  0  0
    6.7350  -38.9151   12.8101 C   0  0  0  0  0  0  0  0  0  0  0  0
    5.5793  -40.0030   13.8521 Br  0  0  0  0  0  0  0  0  0  0  0  0
  1  2  1  0
  2  3  1  0
  3  4  1  0
  4  5  1  0
  5  6  2  0
  5  7  2  0
  5  8  1  0
  8  9  2  0
  9 10  1  0
 10 11  1  0
 10 12  2  0
 12 13  1  0
 13 14  2  0
 14 15  1  0
 14  8  1  0
M  END
>  <inchikey>  (503) 
OEAMRPPCYHZCOG-UHFFFAOYSA-N

>  <tags>  (503) 
fragmenstein_placed,CpKRS_FrAncestor_bulkdock_iter2

>  <ref_pdb>  (503) 
x0602b

>  <energy_score>  (503) 
-38.935527

>  <distance_score>  (503) 
0.725898

>  <HIPPO Pose ID>  (503) 
55196

>  <ref_mols>  (503) 
x0639c

>  <smiles>  (503) 
CCCNS(=O)(=O)c1cc(Cl)ccc1Br

>  <HIPPO Compound ID>  (503) 
450678

>  <alias>  (503) 
OEAMRPPCYHZCOG-UHFFFAOYSA-N-P54

>  <subsites>  (503) 


>  <placement_batch>  (503) 
CpKRS_FrAncestor_bulkdock_iter2

>  <name>  (503) 
OEAMRPPCYHZCOG-UHFFFAOYSA-N-P54

$$$$
OYBIJLRIBFIESS-UHFFFAOYSA-N-P54
     RDKit          3D

 15 15  0  0  0  0  0  0  0  0999 V2000
    7.4679  -37.9204    6.2926 C   0  0  0  0  0  0  0  0  0  0  0  0
    6.6821  -37.8289    7.6015 C   0  0  0  0  0  0  0  0  0  0  0  0
    6.6770  -39.1842    8.2950 C   0  0  0  0  0  0  0  0  0  0  0  0
    7.3150  -36.7928    8.4345 N   0  0  0  0  0  0  0  0  0  0  0  0
    6.5887  -36.2495    9.8394 S   0  0  0  0  0  0  0  0  0  0  0  0
    7.1119  -34.9299   10.1242 O   0  0  0  0  0  0  0  0  0  0  0  0
    5.1616  -36.4581    9.7267 O   0  0  0  0  0  0  0  0  0  0  0  0
    7.2150  -37.3360   11.0881 C   0  0  0  0  0  0  0  0  0  0  0  0
    6.2932  -38.1299   11.7897 C   0  0  0  0  0  0  0  0  0  0  0  0
    6.7284  -38.9300   12.8411 C   0  0  0  0  0  0  0  0  0  0  0  0
    5.5907  -39.8853   13.7056 Cl  0  0  0  0  0  0  0  0  0  0  0  0
    8.0717  -38.9454   13.2008 C   0  0  0  0  0  0  0  0  0  0  0  0
    8.9879  -38.1518   12.5049 C   0  0  0  0  0  0  0  0  0  0  0  0
    8.5661  -37.3385   11.4470 C   0  0  0  0  0  0  0  0  0  0  0  0
    9.7754  -36.3836   10.6680 Cl  0  0  0  0  0  0  0  0  0  0  0  0
  1  2  1  0
  2  3  1  0
  2  4  1  0
  4  5  1  0
  5  6  2  0
  5  7  2  0
  5  8  1  0
  8  9  2  0
  9 10  1  0
 10 11  1  0
 10 12  2  0
 12 13  1  0
 13 14  2  0
 14 15  1  0
 14  8  1  0
M  END
>  <inchikey>  (504) 
OYBIJLRIBFIESS-UHFFFAOYSA-N

>  <tags>  (504) 
fragmenstein_placed,CpKRS_FrAncestor_bulkdock_iter2

>  <ref_pdb>  (504) 
x0602b

>  <energy_score>  (504) 
-47.165753

>  <distance_score>  (504) 
0.254962

>  <HIPPO Pose ID>  (504) 
55199

>  <ref_mols>  (504) 
x0639c

>  <smiles>  (504) 
CC(C)NS(=O)(=O)c1cc(Cl)ccc1Cl

>  <HIPPO Compound ID>  (504) 
312073

>  <alias>  (504) 
OYBIJLRIBFIESS-UHFFFAOYSA-N-P54

>  <subsites>  (504) 


>  <placement_batch>  (504) 
CpKRS_FrAncestor_bulkdock_iter2

>  <name>  (504) 
OYBIJLRIBFIESS-UHFFFAOYSA-N-P54

$$$$
XQMUVOJZSMOXTQ-UHFFFAOYSA-N-P54
     RDKit          3D

 15 15  0  0  0  0  0  0  0  0999 V2000
    6.8584  -39.5290    5.8625 C   0  0  0  0  0  0  0  0  0  0  0  0
    7.1486  -38.1422    6.4123 C   0  0  0  0  0  0  0  0  0  0  0  0
    6.9328  -38.0819    7.9215 C   0  0  0  0  0  0  0  0  0  0  0  0
    7.2345  -36.7294    8.3890 N   0  0  0  0  0  0  0  0  0  0  0  0
    6.5794  -36.1836    9.8243 S   0  0  0  0  0  0  0  0  0  0  0  0
    5.1447  -36.3584    9.7533 O   0  0  0  0  0  0  0  0  0  0  0  0
    7.1435  -34.8849   10.1218 O   0  0  0  0  0  0  0  0  0  0  0  0
    7.1960  -37.3218   11.0356 C   0  0  0  0  0  0  0  0  0  0  0  0
    6.2682  -38.1320   11.7093 C   0  0  0  0  0  0  0  0  0  0  0  0
    6.6923  -38.9415   12.7589 C   0  0  0  0  0  0  0  0  0  0  0  0
    5.5465  -39.9074   13.6007 Cl  0  0  0  0  0  0  0  0  0  0  0  0
    8.0305  -38.9558   13.1387 C   0  0  0  0  0  0  0  0  0  0  0  0
    8.9550  -38.1575   12.4597 C   0  0  0  0  0  0  0  0  0  0  0  0
    8.5443  -37.3336   11.4058 C   0  0  0  0  0  0  0  0  0  0  0  0
    9.7640  -36.3911   10.6284 Cl  0  0  0  0  0  0  0  0  0  0  0  0
  1  2  1  0
  2  3  1  0
  3  4  1  0
  4  5  1  0
  5  6  2  0
  5  7  2  0
  5  8  1  0
  8  9  2  0
  9 10  1  0
 10 11  1  0
 10 12  2  0
 12 13  1  0
 13 14  2  0
 14 15  1  0
 14  8  1  0
M  END
>  <inchikey>  (505) 
XQMUVOJZSMOXTQ-UHFFFAOYSA-N

>  <tags>  (505) 
fragmenstein_placed,CpKRS_FrAncestor_bulkdock_iter2

>  <ref_pdb>  (505) 
x0602b

>  <energy_score>  (505) 
-42.803452

>  <distance_score>  (505) 
0.204372

>  <HIPPO Pose ID>  (505) 
55202

>  <ref_mols>  (505) 
x0639c

>  <smiles>  (505) 
CCCNS(=O)(=O)c1cc(Cl)ccc1Cl

>  <HIPPO Compound ID>  (505) 
450679

>  <alias>  (505) 
XQMUVOJZSMOXTQ-UHFFFAOYSA-N-P54

>  <subsites>  (505) 


>  <placement_batch>  (505) 
CpKRS_FrAncestor_bulkdock_iter2

>  <name>  (505) 
XQMUVOJZSMOXTQ-UHFFFAOYSA-N-P54

$$$$
LIXNQIUNTUYONU-UHFFFAOYSA-N-P54
     RDKit          3D

 15 15  0  0  0  0  0  0  0  0999 V2000
    5.1163  -38.7131    6.1926 C   0  0  0  0  0  0  0  0  0  0  0  0
    6.0456  -39.2990    7.2465 C   0  0  0  0  0  0  0  0  0  0  0  0
    5.3532  -39.5462    8.5850 C   0  0  0  0  0  0  0  0  0  0  0  0
    5.0234  -38.2656    9.2214 N   0  0  0  0  0  0  0  0  0  0  0  0
    4.7668  -38.2546   10.8867 S   0  0  0  0  0  0  0  0  0  0  0  0
    4.1497  -39.5165   11.2224 O   0  0  0  0  0  0  0  0  0  0  0  0
    4.1392  -36.9867   11.1886 O   0  0  0  0  0  0  0  0  0  0  0  0
    6.4166  -38.1692   11.5489 C   0  0  0  0  0  0  0  0  0  0  0  0
    7.3332  -37.3495   10.8690 C   0  0  0  0  0  0  0  0  0  0  0  0
    8.6322  -37.2165   11.3472 C   0  0  0  0  0  0  0  0  0  0  0  0
    9.7314  -36.1646   10.5451 Cl  0  0  0  0  0  0  0  0  0  0  0  0
    9.0356  -37.9078   12.4819 C   0  0  0  0  0  0  0  0  0  0  0  0
    8.1265  -38.7269   13.1548 C   0  0  0  0  0  0  0  0  0  0  0  0
    6.7990  -38.8589   12.7132 C   0  0  0  0  0  0  0  0  0  0  0  0
    5.8668  -39.7219   13.5157 C   0  0  0  0  0  0  0  0  0  0  0  0
  1  2  1  0
  2  3  1  0
  3  4  1  0
  4  5  1  0
  5  6  2  0
  5  7  2  0
  5  8  1  0
  8  9  2  0
  9 10  1  0
 10 11  1  0
 10 12  2  0
 12 13  1  0
 13 14  2  0
 14 15  1  0
 14  8  1  0
M  END
>  <inchikey>  (506) 
LIXNQIUNTUYONU-UHFFFAOYSA-N

>  <tags>  (506) 
fragmenstein_placed,CpKRS_FrAncestor_bulkdock_iter2

>  <ref_pdb>  (506) 
x0602b

>  <energy_score>  (506) 
-25.69693

>  <distance_score>  (506) 
0.751698

>  <HIPPO Pose ID>  (506) 
55205

>  <ref_mols>  (506) 
x0639c

>  <smiles>  (506) 
CCCNS(=O)(=O)c1cc(Cl)ccc1C

>  <HIPPO Compound ID>  (506) 
450680

>  <alias>  (506) 
LIXNQIUNTUYONU-UHFFFAOYSA-N-P54

>  <subsites>  (506) 


>  <placement_batch>  (506) 
CpKRS_FrAncestor_bulkdock_iter2

>  <name>  (506) 
LIXNQIUNTUYONU-UHFFFAOYSA-N-P54

$$$$
LYETYUAFLTUGDA-UHFFFAOYSA-N-P54
     RDKit          3D

 15 15  0  0  0  0  0  0  0  0999 V2000
    4.6135  -41.8141    7.8933 C   0  0  0  0  0  0  0  0  0  0  0  0
    3.9453  -41.1210    9.0693 C   0  0  0  0  0  0  0  0  0  0  0  0
    4.8424  -40.0402    9.6653 C   0  0  0  0  0  0  0  0  0  0  0  0
    4.1469  -39.4177   10.7931 N   0  0  0  0  0  0  0  0  0  0  0  0
    4.6258  -37.9036   11.3252 S   0  0  0  0  0  0  0  0  0  0  0  0
    4.5761  -37.0106   10.1869 O   0  0  0  0  0  0  0  0  0  0  0  0
    3.8914  -37.5914   12.5305 O   0  0  0  0  0  0  0  0  0  0  0  0
    6.3327  -38.1167   11.7680 C   0  0  0  0  0  0  0  0  0  0  0  0
    7.2718  -37.3413   11.0637 C   0  0  0  0  0  0  0  0  0  0  0  0
    8.6097  -37.3447   11.4467 C   0  0  0  0  0  0  0  0  0  0  0  0
    9.7278  -36.3195   10.6367 Cl  0  0  0  0  0  0  0  0  0  0  0  0
    9.0327  -38.1411   12.5030 C   0  0  0  0  0  0  0  0  0  0  0  0
    8.1094  -38.9411   13.1817 C   0  0  0  0  0  0  0  0  0  0  0  0
    6.7525  -38.9351   12.8244 C   0  0  0  0  0  0  0  0  0  0  0  0
    5.5196  -40.2207   13.9387 I   0  0  0  0  0  0  0  0  0  0  0  0
  1  2  1  0
  2  3  1  0
  3  4  1  0
  4  5  1  0
  5  6  2  0
  5  7  2  0
  5  8  1  0
  8  9  2  0
  9 10  1  0
 10 11  1  0
 10 12  2  0
 12 13  1  0
 13 14  2  0
 14 15  1  0
 14  8  1  0
M  END
>  <inchikey>  (507) 
LYETYUAFLTUGDA-UHFFFAOYSA-N

>  <tags>  (507) 
fragmenstein_placed,CpKRS_FrAncestor_bulkdock_iter2

>  <ref_pdb>  (507) 
x0602b

>  <energy_score>  (507) 
-43.753943

>  <distance_score>  (507) 
0.455621

>  <HIPPO Pose ID>  (507) 
55208

>  <ref_mols>  (507) 
x0639c

>  <smiles>  (507) 
CCCNS(=O)(=O)c1cc(Cl)ccc1I

>  <HIPPO Compound ID>  (507) 
450681

>  <alias>  (507) 
LYETYUAFLTUGDA-UHFFFAOYSA-N-P54

>  <subsites>  (507) 


>  <placement_batch>  (507) 
CpKRS_FrAncestor_bulkdock_iter2

>  <name>  (507) 
LYETYUAFLTUGDA-UHFFFAOYSA-N-P54

$$$$
VJFGAZQHKUXMCO-UHFFFAOYSA-N-P54
     RDKit          3D

 15 15  0  0  0  0  0  0  0  0999 V2000
    6.8404  -39.5437    5.8650 C   0  0  0  0  0  0  0  0  0  0  0  0
    7.1241  -38.1528    6.4078 C   0  0  0  0  0  0  0  0  0  0  0  0
    6.9135  -38.0875    7.9176 C   0  0  0  0  0  0  0  0  0  0  0  0
    7.2087  -36.7311    8.3782 N   0  0  0  0  0  0  0  0  0  0  0  0
    6.5553  -36.1859    9.8152 S   0  0  0  0  0  0  0  0  0  0  0  0
    5.1201  -36.3574    9.7423 O   0  0  0  0  0  0  0  0  0  0  0  0
    7.1209  -34.8876   10.1122 O   0  0  0  0  0  0  0  0  0  0  0  0
    7.1738  -37.3293   11.0261 C   0  0  0  0  0  0  0  0  0  0  0  0
    6.2383  -38.1403   11.6904 C   0  0  0  0  0  0  0  0  0  0  0  0
    6.6509  -38.9614   12.7374 C   0  0  0  0  0  0  0  0  0  0  0  0
    5.2568  -40.1322   13.7363 I   0  0  0  0  0  0  0  0  0  0  0  0
    7.9864  -38.9840   13.1269 C   0  0  0  0  0  0  0  0  0  0  0  0
    8.9186  -38.1868   12.4582 C   0  0  0  0  0  0  0  0  0  0  0  0
    8.5206  -37.3546   11.4052 C   0  0  0  0  0  0  0  0  0  0  0  0
    9.8899  -36.3347   10.5766 Br  0  0  0  0  0  0  0  0  0  0  0  0
  1  2  1  0
  2  3  1  0
  3  4  1  0
  4  5  1  0
  5  6  2  0
  5  7  2  0
  5  8  1  0
  8  9  2  0
  9 10  1  0
 10 11  1  0
 10 12  2  0
 12 13  1  0
 13 14  2  0
 14 15  1  0
 14  8  1  0
M  END
>  <inchikey>  (508) 
VJFGAZQHKUXMCO-UHFFFAOYSA-N

>  <tags>  (508) 
fragmenstein_placed,CpKRS_FrAncestor_bulkdock_iter2

>  <ref_pdb>  (508) 
x0602b

>  <energy_score>  (508) 
-23.789957

>  <distance_score>  (508) 
0.219024

>  <HIPPO Pose ID>  (508) 
55211

>  <ref_mols>  (508) 
x0639c

>  <smiles>  (508) 
CCCNS(=O)(=O)c1cc(I)ccc1Br

>  <HIPPO Compound ID>  (508) 
450682

>  <alias>  (508) 
VJFGAZQHKUXMCO-UHFFFAOYSA-N-P54

>  <subsites>  (508) 


>  <placement_batch>  (508) 
CpKRS_FrAncestor_bulkdock_iter2

>  <name>  (508) 
VJFGAZQHKUXMCO-UHFFFAOYSA-N-P54

$$$$
QNGBPXNSIOZWGO-UHFFFAOYSA-N-P54
     RDKit          3D

 15 15  0  0  0  0  0  0  0  0999 V2000
    7.2431  -39.7817    6.1277 C   0  0  0  0  0  0  0  0  0  0  0  0
    7.7848  -38.5690    6.8662 C   0  0  0  0  0  0  0  0  0  0  0  0
    6.7151  -37.9221    7.7407 C   0  0  0  0  0  0  0  0  0  0  0  0
    7.2974  -36.7669    8.4212 N   0  0  0  0  0  0  0  0  0  0  0  0
    6.5963  -36.2114    9.8295 S   0  0  0  0  0  0  0  0  0  0  0  0
    7.1337  -34.8990   10.1177 O   0  0  0  0  0  0  0  0  0  0  0  0
    5.1660  -36.4052    9.7230 O   0  0  0  0  0  0  0  0  0  0  0  0
    7.2195  -37.3275   11.0546 C   0  0  0  0  0  0  0  0  0  0  0  0
    6.2991  -38.1659   11.7054 C   0  0  0  0  0  0  0  0  0  0  0  0
    6.7255  -38.9806   12.7515 C   0  0  0  0  0  0  0  0  0  0  0  0
    5.3566  -40.1974   13.7298 I   0  0  0  0  0  0  0  0  0  0  0  0
    8.0583  -38.9677   13.1521 C   0  0  0  0  0  0  0  0  0  0  0  0
    8.9730  -38.1387   12.4968 C   0  0  0  0  0  0  0  0  0  0  0  0
    8.5612  -37.3124   11.4455 C   0  0  0  0  0  0  0  0  0  0  0  0
    9.7734  -36.3295   10.7071 Cl  0  0  0  0  0  0  0  0  0  0  0  0
  1  2  1  0
  2  3  1  0
  3  4  1  0
  4  5  1  0
  5  6  2  0
  5  7  2  0
  5  8  1  0
  8  9  2  0
  9 10  1  0
 10 11  1  0
 10 12  2  0
 12 13  1  0
 13 14  2  0
 14 15  1  0
 14  8  1  0
M  END
>  <inchikey>  (509) 
QNGBPXNSIOZWGO-UHFFFAOYSA-N

>  <tags>  (509) 
fragmenstein_placed,CpKRS_FrAncestor_bulkdock_iter2

>  <ref_pdb>  (509) 
x0602b

>  <energy_score>  (509) 
-24.616819

>  <distance_score>  (509) 
0.222939

>  <HIPPO Pose ID>  (509) 
55214

>  <ref_mols>  (509) 
x0639c

>  <smiles>  (509) 
CCCNS(=O)(=O)c1cc(I)ccc1Cl

>  <HIPPO Compound ID>  (509) 
450683

>  <alias>  (509) 
QNGBPXNSIOZWGO-UHFFFAOYSA-N-P54

>  <subsites>  (509) 


>  <placement_batch>  (509) 
CpKRS_FrAncestor_bulkdock_iter2

>  <name>  (509) 
QNGBPXNSIOZWGO-UHFFFAOYSA-N-P54

$$$$
OJCLNVKXMOZFKA-UHFFFAOYSA-N-P54
     RDKit          3D

 15 15  0  0  0  0  0  0  0  0999 V2000
    5.5745  -37.3089    5.8196 C   0  0  0  0  0  0  0  0  0  0  0  0
    6.7256  -38.1283    6.3868 C   0  0  0  0  0  0  0  0  0  0  0  0
    6.7873  -38.0771    7.9111 C   0  0  0  0  0  0  0  0  0  0  0  0
    7.1558  -36.7328    8.3476 N   0  0  0  0  0  0  0  0  0  0  0  0
    6.6066  -36.1438    9.8067 S   0  0  0  0  0  0  0  0  0  0  0  0
    5.1628  -36.2353    9.8119 O   0  0  0  0  0  0  0  0  0  0  0  0
    7.2634  -34.8785   10.0586 O   0  0  0  0  0  0  0  0  0  0  0  0
    7.2379  -37.3178   10.9965 C   0  0  0  0  0  0  0  0  0  0  0  0
    6.3022  -38.1472   11.6367 C   0  0  0  0  0  0  0  0  0  0  0  0
    6.7101  -38.9785   12.6755 C   0  0  0  0  0  0  0  0  0  0  0  0
    5.3154  -40.1730   13.6459 I   0  0  0  0  0  0  0  0  0  0  0  0
    8.0398  -38.9914   13.0814 C   0  0  0  0  0  0  0  0  0  0  0  0
    8.9726  -38.1750   12.4367 C   0  0  0  0  0  0  0  0  0  0  0  0
    8.5941  -37.3306   11.3793 C   0  0  0  0  0  0  0  0  0  0  0  0
    9.6436  -36.4401   10.7749 C   0  0  0  0  0  0  0  0  0  0  0  0
  1  2  1  0
  2  3  1  0
  3  4  1  0
  4  5  1  0
  5  6  2  0
  5  7  2  0
  5  8  1  0
  8  9  2  0
  9 10  1  0
 10 11  1  0
 10 12  2  0
 12 13  1  0
 13 14  2  0
 14 15  1  0
 14  8  1  0
M  END
>  <inchikey>  (510) 
OJCLNVKXMOZFKA-UHFFFAOYSA-N

>  <tags>  (510) 
fragmenstein_placed,CpKRS_FrAncestor_bulkdock_iter2

>  <ref_pdb>  (510) 
x0602b

>  <energy_score>  (510) 
-25.41468

>  <distance_score>  (510) 
0.208888

>  <HIPPO Pose ID>  (510) 
55217

>  <ref_mols>  (510) 
x0639c

>  <smiles>  (510) 
CCCNS(=O)(=O)c1cc(I)ccc1C

>  <HIPPO Compound ID>  (510) 
450684

>  <alias>  (510) 
OJCLNVKXMOZFKA-UHFFFAOYSA-N-P54

>  <subsites>  (510) 


>  <placement_batch>  (510) 
CpKRS_FrAncestor_bulkdock_iter2

>  <name>  (510) 
OJCLNVKXMOZFKA-UHFFFAOYSA-N-P54

$$$$
QMGMVXNIVPWWPJ-UHFFFAOYSA-N-P54
     RDKit          3D

 15 15  0  0  0  0  0  0  0  0999 V2000
    7.9990  -38.4548    5.5487 C   0  0  0  0  0  0  0  0  0  0  0  0
    7.4909  -38.2835    6.6236 C   0  0  0  0  0  0  0  0  0  0  0  0
    6.8731  -38.0691    7.9374 C   0  0  0  0  0  0  0  0  0  0  0  0
    7.2490  -36.7533    8.4281 N   0  0  0  0  0  0  0  0  0  0  0  0
    6.5841  -36.2140    9.8593 S   0  0  0  0  0  0  0  0  0  0  0  0
    7.1509  -34.9132   10.1522 O   0  0  0  0  0  0  0  0  0  0  0  0
    5.1534  -36.3528    9.7292 O   0  0  0  0  0  0  0  0  0  0  0  0
    7.2216  -37.3384   11.0790 C   0  0  0  0  0  0  0  0  0  0  0  0
    8.6059  -37.3285   11.3424 C   0  0  0  0  0  0  0  0  0  0  0  0
    9.7640  -36.3906   10.4575 Cl  0  0  0  0  0  0  0  0  0  0  0  0
    9.1393  -38.1148   12.3708 C   0  0  0  0  0  0  0  0  0  0  0  0
    8.3106  -38.9121   13.1476 C   0  0  0  0  0  0  0  0  0  0  0  0
    6.9451  -38.9327   12.8916 C   0  0  0  0  0  0  0  0  0  0  0  0
    6.3909  -38.1506   11.8666 C   0  0  0  0  0  0  0  0  0  0  0  0
    4.6770  -38.2887   11.7203 Cl  0  0  0  0  0  0  0  0  0  0  0  0
  1  2  3  0
  2  3  1  0
  3  4  1  0
  4  5  1  0
  5  6  2  0
  5  7  2  0
  5  8  1  0
  8  9  2  0
  9 10  1  0
  9 11  1  0
 11 12  2  0
 12 13  1  0
 13 14  2  0
 14 15  1  0
 14  8  1  0
M  END
>  <inchikey>  (511) 
QMGMVXNIVPWWPJ-UHFFFAOYSA-N

>  <tags>  (511) 
fragmenstein_placed,CpKRS_FrAncestor_bulkdock_iter2

>  <ref_pdb>  (511) 
x0602b

>  <energy_score>  (511) 
-368.670177

>  <distance_score>  (511) 
0.208749

>  <HIPPO Pose ID>  (511) 
55220

>  <ref_mols>  (511) 
x0639c

>  <smiles>  (511) 
C#CCNS(=O)(=O)c1c(Cl)cccc1Cl

>  <HIPPO Compound ID>  (511) 
311506

>  <alias>  (511) 
QMGMVXNIVPWWPJ-UHFFFAOYSA-N-P54

>  <subsites>  (511) 


>  <placement_batch>  (511) 
CpKRS_FrAncestor_bulkdock_iter2

>  <name>  (511) 
QMGMVXNIVPWWPJ-UHFFFAOYSA-N-P54

$$$$
ZRXVRUODUKRJMY-UHFFFAOYSA-N-P54
     RDKit          3D

 15 15  0  0  0  0  0  0  0  0999 V2000
    6.8097  -39.5228    5.8759 C   0  0  0  0  0  0  0  0  0  0  0  0
    7.1192  -38.1445    6.4366 C   0  0  0  0  0  0  0  0  0  0  0  0
    6.9131  -38.0958    7.9475 C   0  0  0  0  0  0  0  0  0  0  0  0
    7.2333  -36.7519    8.4258 N   0  0  0  0  0  0  0  0  0  0  0  0
    6.5759  -36.2065    9.8654 S   0  0  0  0  0  0  0  0  0  0  0  0
    5.1432  -36.3321    9.7420 O   0  0  0  0  0  0  0  0  0  0  0  0
    7.1543  -34.9087   10.1502 O   0  0  0  0  0  0  0  0  0  0  0  0
    7.2141  -37.3372   11.0771 C   0  0  0  0  0  0  0  0  0  0  0  0
    6.3835  -38.1515   11.8624 C   0  0  0  0  0  0  0  0  0  0  0  0
    4.6688  -38.2863   11.7190 Cl  0  0  0  0  0  0  0  0  0  0  0  0
    6.9378  -38.9376   12.8845 C   0  0  0  0  0  0  0  0  0  0  0  0
    8.3034  -38.9191   13.1399 C   0  0  0  0  0  0  0  0  0  0  0  0
    9.1322  -38.1204   12.3647 C   0  0  0  0  0  0  0  0  0  0  0  0
    8.5987  -37.3302   11.3389 C   0  0  0  0  0  0  0  0  0  0  0  0
    9.7584  -36.3912   10.4565 Cl  0  0  0  0  0  0  0  0  0  0  0  0
  1  2  1  0
  2  3  1  0
  3  4  1  0
  4  5  1  0
  5  6  2  0
  5  7  2  0
  5  8  1  0
  8  9  2  0
  9 10  1  0
  9 11  1  0
 11 12  2  0
 12 13  1  0
 13 14  2  0
 14 15  1  0
 14  8  1  0
M  END
>  <inchikey>  (512) 
ZRXVRUODUKRJMY-UHFFFAOYSA-N

>  <tags>  (512) 
fragmenstein_placed,CpKRS_FrAncestor_bulkdock_iter2

>  <ref_pdb>  (512) 
x0602b

>  <energy_score>  (512) 
-34.541074

>  <distance_score>  (512) 
0.20689

>  <HIPPO Pose ID>  (512) 
55223

>  <ref_mols>  (512) 
x0639c

>  <smiles>  (512) 
CCCNS(=O)(=O)c1c(Cl)cccc1Cl

>  <HIPPO Compound ID>  (512) 
450685

>  <alias>  (512) 
ZRXVRUODUKRJMY-UHFFFAOYSA-N-P54

>  <subsites>  (512) 


>  <placement_batch>  (512) 
CpKRS_FrAncestor_bulkdock_iter2

>  <name>  (512) 
ZRXVRUODUKRJMY-UHFFFAOYSA-N-P54

$$$$
OHOVHVCKDYVPCR-UHFFFAOYSA-N-P54
     RDKit          3D

 16 16  0  0  0  0  0  0  0  0999 V2000
    8.7581  -39.8298    8.4677 C   0  0  0  0  0  0  0  0  0  0  0  0
    7.9039  -39.0281    8.2022 C   0  0  0  0  0  0  0  0  0  0  0  0
    6.8637  -38.0434    7.8904 C   0  0  0  0  0  0  0  0  0  0  0  0
    7.2398  -36.7469    8.4220 N   0  0  0  0  0  0  0  0  0  0  0  0
    6.5915  -36.2121    9.8558 S   0  0  0  0  0  0  0  0  0  0  0  0
    7.1598  -34.9102   10.1432 O   0  0  0  0  0  0  0  0  0  0  0  0
    5.1571  -36.3292    9.7358 O   0  0  0  0  0  0  0  0  0  0  0  0
    7.2291  -37.3460   11.0698 C   0  0  0  0  0  0  0  0  0  0  0  0
    6.3921  -38.2131   11.7873 C   0  0  0  0  0  0  0  0  0  0  0  0
    4.7046  -38.4556   11.5149 Cl  0  0  0  0  0  0  0  0  0  0  0  0
    6.9179  -38.9862   12.8289 C   0  0  0  0  0  0  0  0  0  0  0  0
    8.2617  -38.9032   13.1723 C   0  0  0  0  0  0  0  0  0  0  0  0
    9.1204  -38.0575   12.4669 C   0  0  0  0  0  0  0  0  0  0  0  0
   10.5628  -37.9855   12.8970 C   0  0  0  0  0  0  0  0  0  0  0  0
    8.6040  -37.2847   11.4032 C   0  0  0  0  0  0  0  0  0  0  0  0
    9.7380  -36.2993   10.5201 Cl  0  0  0  0  0  0  0  0  0  0  0  0
  1  2  3  0
  2  3  1  0
  3  4  1  0
  4  5  1  0
  5  6  2  0
  5  7  2  0
  5  8  1  0
  8  9  2  0
  9 10  1  0
  9 11  1  0
 11 12  2  0
 12 13  1  0
 13 14  1  0
 13 15  2  0
 15 16  1  0
 15  8  1  0
M  END
>  <inchikey>  (513) 
OHOVHVCKDYVPCR-UHFFFAOYSA-N

>  <tags>  (513) 
fragmenstein_placed,CpKRS_FrAncestor_bulkdock_iter2

>  <ref_pdb>  (513) 
x0602b

>  <energy_score>  (513) 
-23.996978

>  <distance_score>  (513) 
0.194216

>  <HIPPO Pose ID>  (513) 
55226

>  <ref_mols>  (513) 
x0639c

>  <smiles>  (513) 
C#CCNS(=O)(=O)c1c(Cl)ccc(C)c1Cl

>  <HIPPO Compound ID>  (513) 
134154

>  <alias>  (513) 
OHOVHVCKDYVPCR-UHFFFAOYSA-N-P54

>  <subsites>  (513) 


>  <placement_batch>  (513) 
CpKRS_FrAncestor_bulkdock_iter2

>  <name>  (513) 
OHOVHVCKDYVPCR-UHFFFAOYSA-N-P54

$$$$
UPLUARHCGRMWTG-UHFFFAOYSA-N-P54
     RDKit          3D

 16 16  0  0  0  0  0  0  0  0999 V2000
    5.9698  -37.2937    5.7160 C   0  0  0  0  0  0  0  0  0  0  0  0
    7.0439  -38.1208    6.4089 C   0  0  0  0  0  0  0  0  0  0  0  0
    6.9230  -38.0841    7.9301 C   0  0  0  0  0  0  0  0  0  0  0  0
    7.2376  -36.7436    8.4195 N   0  0  0  0  0  0  0  0  0  0  0  0
    6.5776  -36.2064    9.8587 S   0  0  0  0  0  0  0  0  0  0  0  0
    7.1453  -34.9050   10.1486 O   0  0  0  0  0  0  0  0  0  0  0  0
    5.1449  -36.3341    9.7357 O   0  0  0  0  0  0  0  0  0  0  0  0
    7.2211  -37.3427   11.0683 C   0  0  0  0  0  0  0  0  0  0  0  0
    6.3848  -38.1898   11.8105 C   0  0  0  0  0  0  0  0  0  0  0  0
    4.6862  -38.3982   11.5843 Cl  0  0  0  0  0  0  0  0  0  0  0  0
    6.9201  -38.9641   12.8465 C   0  0  0  0  0  0  0  0  0  0  0  0
    8.2718  -38.8998   13.1621 C   0  0  0  0  0  0  0  0  0  0  0  0
    9.1286  -38.0714   12.4343 C   0  0  0  0  0  0  0  0  0  0  0  0
   10.5795  -38.0154   12.8381 C   0  0  0  0  0  0  0  0  0  0  0  0
    8.6025  -37.2979   11.3758 C   0  0  0  0  0  0  0  0  0  0  0  0
    9.7311  -36.3275   10.4698 Cl  0  0  0  0  0  0  0  0  0  0  0  0
  1  2  1  0
  2  3  1  0
  3  4  1  0
  4  5  1  0
  5  6  2  0
  5  7  2  0
  5  8  1  0
  8  9  2  0
  9 10  1  0
  9 11  1  0
 11 12  2  0
 12 13  1  0
 13 14  1  0
 13 15  2  0
 15 16  1  0
 15  8  1  0
M  END
>  <inchikey>  (514) 
UPLUARHCGRMWTG-UHFFFAOYSA-N

>  <tags>  (514) 
fragmenstein_placed,CpKRS_FrAncestor_bulkdock_iter2

>  <ref_pdb>  (514) 
x0602b

>  <energy_score>  (514) 
-33.695112

>  <distance_score>  (514) 
0.196891

>  <HIPPO Pose ID>  (514) 
55229

>  <ref_mols>  (514) 
x0639c

>  <smiles>  (514) 
CCCNS(=O)(=O)c1c(Cl)ccc(C)c1Cl

>  <HIPPO Compound ID>  (514) 
450686

>  <alias>  (514) 
UPLUARHCGRMWTG-UHFFFAOYSA-N-P54

>  <subsites>  (514) 


>  <placement_batch>  (514) 
CpKRS_FrAncestor_bulkdock_iter2

>  <name>  (514) 
UPLUARHCGRMWTG-UHFFFAOYSA-N-P54

$$$$
WQACFKMFTDHWGD-UHFFFAOYSA-N-P54
     RDKit          3D

 15 15  0  0  0  0  0  0  0  0999 V2000
    5.4230  -38.3297    7.6983 C   0  0  0  0  0  0  0  0  0  0  0  0
    6.9106  -38.0214    7.7489 C   0  0  0  0  0  0  0  0  0  0  0  0
    7.7151  -39.1863    8.3084 C   0  0  0  0  0  0  0  0  0  0  0  0
    7.2394  -36.7722    8.4433 N   0  0  0  0  0  0  0  0  0  0  0  0
    6.6002  -36.2211    9.8797 S   0  0  0  0  0  0  0  0  0  0  0  0
    5.1619  -36.2911    9.7917 O   0  0  0  0  0  0  0  0  0  0  0  0
    7.2244  -34.9383   10.1445 O   0  0  0  0  0  0  0  0  0  0  0  0
    7.2173  -37.3338   11.1004 C   0  0  0  0  0  0  0  0  0  0  0  0
    8.6038  -37.3005   11.2967 C   0  0  0  0  0  0  0  0  0  0  0  0
    9.3951  -36.5315   10.5314 F   0  0  0  0  0  0  0  0  0  0  0  0
    9.2141  -38.0550   12.2939 C   0  0  0  0  0  0  0  0  0  0  0  0
    8.4374  -38.8531   13.1220 C   0  0  0  0  0  0  0  0  0  0  0  0
    7.0557  -38.8931   12.9430 C   0  0  0  0  0  0  0  0  0  0  0  0
    6.4328  -38.1323   11.9396 C   0  0  0  0  0  0  0  0  0  0  0  0
    4.5423  -38.2806   11.9043 Br  0  0  0  0  0  0  0  0  0  0  0  0
  1  2  1  0
  2  3  1  0
  2  4  1  0
  4  5  1  0
  5  6  2  0
  5  7  2  0
  5  8  1  0
  8  9  2  0
  9 10  1  0
  9 11  1  0
 11 12  2  0
 12 13  1  0
 13 14  2  0
 14 15  1  0
 14  8  1  0
M  END
>  <inchikey>  (515) 
WQACFKMFTDHWGD-UHFFFAOYSA-N

>  <tags>  (515) 
fragmenstein_placed,CpKRS_FrAncestor_bulkdock_iter2

>  <ref_pdb>  (515) 
x0602b

>  <energy_score>  (515) 
-30.519303

>  <distance_score>  (515) 
0.269754

>  <HIPPO Pose ID>  (515) 
55232

>  <ref_mols>  (515) 
x0639c

>  <smiles>  (515) 
CC(C)NS(=O)(=O)c1c(F)cccc1Br

>  <HIPPO Compound ID>  (515) 
312130

>  <alias>  (515) 
WQACFKMFTDHWGD-UHFFFAOYSA-N-P54

>  <subsites>  (515) 


>  <placement_batch>  (515) 
CpKRS_FrAncestor_bulkdock_iter2

>  <name>  (515) 
WQACFKMFTDHWGD-UHFFFAOYSA-N-P54

$$$$
IEDMRPBIVYKXEC-UHFFFAOYSA-N-P54
     RDKit          3D

 15 15  0  0  0  0  0  0  0  0999 V2000
    7.8718  -38.4107    5.4812 C   0  0  0  0  0  0  0  0  0  0  0  0
    7.4081  -38.2619    6.5793 C   0  0  0  0  0  0  0  0  0  0  0  0
    6.8443  -38.0749    7.9215 C   0  0  0  0  0  0  0  0  0  0  0  0
    7.2054  -36.7533    8.4057 N   0  0  0  0  0  0  0  0  0  0  0  0
    6.5619  -36.2238    9.8483 S   0  0  0  0  0  0  0  0  0  0  0  0
    5.1283  -36.3824    9.7626 O   0  0  0  0  0  0  0  0  0  0  0  0
    7.1253  -34.9202   10.1341 O   0  0  0  0  0  0  0  0  0  0  0  0
    7.2153  -37.3457   11.0467 C   0  0  0  0  0  0  0  0  0  0  0  0
    6.3362  -38.1652   11.7554 C   0  0  0  0  0  0  0  0  0  0  0  0
    5.0263  -38.2029   11.4837 F   0  0  0  0  0  0  0  0  0  0  0  0
    6.7895  -38.9784   12.7916 C   0  0  0  0  0  0  0  0  0  0  0  0
    8.1352  -38.9760   13.1365 C   0  0  0  0  0  0  0  0  0  0  0  0
    9.0264  -38.1692   12.4322 C   0  0  0  0  0  0  0  0  0  0  0  0
    8.5749  -37.3515   11.3868 C   0  0  0  0  0  0  0  0  0  0  0  0
    9.9102  -36.3205   10.5120 Br  0  0  0  0  0  0  0  0  0  0  0  0
  1  2  3  0
  2  3  1  0
  3  4  1  0
  4  5  1  0
  5  6  2  0
  5  7  2  0
  5  8  1  0
  8  9  2  0
  9 10  1  0
  9 11  1  0
 11 12  2  0
 12 13  1  0
 13 14  2  0
 14 15  1  0
 14  8  1  0
M  END
>  <inchikey>  (516) 
IEDMRPBIVYKXEC-UHFFFAOYSA-N

>  <tags>  (516) 
fragmenstein_placed,CpKRS_FrAncestor_bulkdock_iter2

>  <ref_pdb>  (516) 
x0602b

>  <energy_score>  (516) 
-32.950433

>  <distance_score>  (516) 
0.202806

>  <HIPPO Pose ID>  (516) 
55235

>  <ref_mols>  (516) 
x0639c

>  <smiles>  (516) 
C#CCNS(=O)(=O)c1c(F)cccc1Br

>  <HIPPO Compound ID>  (516) 
311508

>  <alias>  (516) 
IEDMRPBIVYKXEC-UHFFFAOYSA-N-P54

>  <subsites>  (516) 


>  <placement_batch>  (516) 
CpKRS_FrAncestor_bulkdock_iter2

>  <name>  (516) 
IEDMRPBIVYKXEC-UHFFFAOYSA-N-P54

$$$$
SSTGTHKQAXZEIY-UHFFFAOYSA-N-P54
     RDKit          3D

 15 15  0  0  0  0  0  0  0  0999 V2000
    6.7457  -39.5205    5.8551 C   0  0  0  0  0  0  0  0  0  0  0  0
    7.0433  -38.1382    6.4123 C   0  0  0  0  0  0  0  0  0  0  0  0
    6.8842  -38.0999    7.9292 C   0  0  0  0  0  0  0  0  0  0  0  0
    7.1913  -36.7520    8.4035 N   0  0  0  0  0  0  0  0  0  0  0  0
    6.5526  -36.2175    9.8543 S   0  0  0  0  0  0  0  0  0  0  0  0
    5.1176  -36.3661    9.7733 O   0  0  0  0  0  0  0  0  0  0  0  0
    7.1250  -34.9158   10.1324 O   0  0  0  0  0  0  0  0  0  0  0  0
    7.2078  -37.3440   11.0459 C   0  0  0  0  0  0  0  0  0  0  0  0
    6.3289  -38.1629   11.7554 C   0  0  0  0  0  0  0  0  0  0  0  0
    5.0173  -38.1944   11.4910 F   0  0  0  0  0  0  0  0  0  0  0  0
    6.7834  -38.9793   12.7888 C   0  0  0  0  0  0  0  0  0  0  0  0
    8.1301  -38.9807   13.1302 C   0  0  0  0  0  0  0  0  0  0  0  0
    9.0210  -38.1745   12.4249 C   0  0  0  0  0  0  0  0  0  0  0  0
    8.5683  -37.3537   11.3822 C   0  0  0  0  0  0  0  0  0  0  0  0
    9.9041  -36.3229   10.5074 Br  0  0  0  0  0  0  0  0  0  0  0  0
  1  2  1  0
  2  3  1  0
  3  4  1  0
  4  5  1  0
  5  6  2  0
  5  7  2  0
  5  8  1  0
  8  9  2  0
  9 10  1  0
  9 11  1  0
 11 12  2  0
 12 13  1  0
 13 14  2  0
 14 15  1  0
 14  8  1  0
M  END
>  <inchikey>  (517) 
SSTGTHKQAXZEIY-UHFFFAOYSA-N

>  <tags>  (517) 
fragmenstein_placed,CpKRS_FrAncestor_bulkdock_iter2

>  <ref_pdb>  (517) 
x0602b

>  <energy_score>  (517) 
-26.72651

>  <distance_score>  (517) 
0.202571

>  <HIPPO Pose ID>  (517) 
55238

>  <ref_mols>  (517) 
x0639c

>  <smiles>  (517) 
CCCNS(=O)(=O)c1c(F)cccc1Br

>  <HIPPO Compound ID>  (517) 
450687

>  <alias>  (517) 
SSTGTHKQAXZEIY-UHFFFAOYSA-N-P54

>  <subsites>  (517) 


>  <placement_batch>  (517) 
CpKRS_FrAncestor_bulkdock_iter2

>  <name>  (517) 
SSTGTHKQAXZEIY-UHFFFAOYSA-N-P54

$$$$
VJEKHUXTYBPCMD-UHFFFAOYSA-N-P54
     RDKit          3D

 15 15  0  0  0  0  0  0  0  0999 V2000
    7.9327  -39.0840    8.1564 C   0  0  0  0  0  0  0  0  0  0  0  0
    6.8968  -38.0401    7.7585 C   0  0  0  0  0  0  0  0  0  0  0  0
    5.4787  -38.5554    7.9439 C   0  0  0  0  0  0  0  0  0  0  0  0
    7.1779  -36.7657    8.4285 N   0  0  0  0  0  0  0  0  0  0  0  0
    6.5693  -36.2416    9.8869 S   0  0  0  0  0  0  0  0  0  0  0  0
    5.1309  -36.3700    9.8595 O   0  0  0  0  0  0  0  0  0  0  0  0
    7.1479  -34.9353   10.1366 O   0  0  0  0  0  0  0  0  0  0  0  0
    7.2546  -37.3395   11.0795 C   0  0  0  0  0  0  0  0  0  0  0  0
    6.4051  -38.1615   11.8188 C   0  0  0  0  0  0  0  0  0  0  0  0
    5.0880  -38.2131   11.5863 F   0  0  0  0  0  0  0  0  0  0  0  0
    6.8972  -38.9595   12.8493 C   0  0  0  0  0  0  0  0  0  0  0  0
    8.2519  -38.9359   13.1579 C   0  0  0  0  0  0  0  0  0  0  0  0
    9.1114  -38.1195   12.4255 C   0  0  0  0  0  0  0  0  0  0  0  0
    8.6198  -37.3170   11.3875 C   0  0  0  0  0  0  0  0  0  0  0  0
    9.7874  -36.3563   10.5487 Cl  0  0  0  0  0  0  0  0  0  0  0  0
  1  2  1  0
  2  3  1  0
  2  4  1  0
  4  5  1  0
  5  6  2  0
  5  7  2  0
  5  8  1  0
  8  9  2  0
  9 10  1  0
  9 11  1  0
 11 12  2  0
 12 13  1  0
 13 14  2  0
 14 15  1  0
 14  8  1  0
M  END
>  <inchikey>  (518) 
VJEKHUXTYBPCMD-UHFFFAOYSA-N

>  <tags>  (518) 
fragmenstein_placed,CpKRS_FrAncestor_bulkdock_iter2

>  <ref_pdb>  (518) 
x0602b

>  <energy_score>  (518) 
-28.400876

>  <distance_score>  (518) 
0.210346

>  <HIPPO Pose ID>  (518) 
55241

>  <ref_mols>  (518) 
x0639c

>  <smiles>  (518) 
CC(C)NS(=O)(=O)c1c(F)cccc1Cl

>  <HIPPO Compound ID>  (518) 
312131

>  <alias>  (518) 
VJEKHUXTYBPCMD-UHFFFAOYSA-N-P54

>  <subsites>  (518) 


>  <placement_batch>  (518) 
CpKRS_FrAncestor_bulkdock_iter2

>  <name>  (518) 
VJEKHUXTYBPCMD-UHFFFAOYSA-N-P54

$$$$
LFLTVPQHHZRMMK-UHFFFAOYSA-N-P54
     RDKit          3D

 15 15  0  0  0  0  0  0  0  0999 V2000
    7.8986  -38.4021    5.4870 C   0  0  0  0  0  0  0  0  0  0  0  0
    7.4335  -38.2532    6.5844 C   0  0  0  0  0  0  0  0  0  0  0  0
    6.8679  -38.0659    7.9257 C   0  0  0  0  0  0  0  0  0  0  0  0
    7.2291  -36.7443    8.4110 N   0  0  0  0  0  0  0  0  0  0  0  0
    6.5886  -36.2203    9.8575 S   0  0  0  0  0  0  0  0  0  0  0  0
    7.1428  -34.9123   10.1412 O   0  0  0  0  0  0  0  0  0  0  0  0
    5.1559  -36.3918    9.7814 O   0  0  0  0  0  0  0  0  0  0  0  0
    7.2553  -37.3342   11.0512 C   0  0  0  0  0  0  0  0  0  0  0  0
    6.3959  -38.1630   11.7707 C   0  0  0  0  0  0  0  0  0  0  0  0
    5.0839  -38.2185   11.5133 F   0  0  0  0  0  0  0  0  0  0  0  0
    6.8739  -38.9659   12.8040 C   0  0  0  0  0  0  0  0  0  0  0  0
    8.2242  -38.9420   13.1329 C   0  0  0  0  0  0  0  0  0  0  0  0
    9.0944  -38.1234   12.4152 C   0  0  0  0  0  0  0  0  0  0  0  0
    8.6167  -37.3165   11.3746 C   0  0  0  0  0  0  0  0  0  0  0  0
    9.7924  -36.3552   10.5487 Cl  0  0  0  0  0  0  0  0  0  0  0  0
  1  2  3  0
  2  3  1  0
  3  4  1  0
  4  5  1  0
  5  6  2  0
  5  7  2  0
  5  8  1  0
  8  9  2  0
  9 10  1  0
  9 11  1  0
 11 12  2  0
 12 13  1  0
 13 14  2  0
 14 15  1  0
 14  8  1  0
M  END
>  <inchikey>  (519) 
LFLTVPQHHZRMMK-UHFFFAOYSA-N

>  <tags>  (519) 
fragmenstein_placed,CpKRS_FrAncestor_bulkdock_iter2

>  <ref_pdb>  (519) 
x0602b

>  <energy_score>  (519) 
-24.637574

>  <distance_score>  (519) 
0.195265

>  <HIPPO Pose ID>  (519) 
55244

>  <ref_mols>  (519) 
x0639c

>  <smiles>  (519) 
C#CCNS(=O)(=O)c1c(F)cccc1Cl

>  <HIPPO Compound ID>  (519) 
311509

>  <alias>  (519) 
LFLTVPQHHZRMMK-UHFFFAOYSA-N-P54

>  <subsites>  (519) 


>  <placement_batch>  (519) 
CpKRS_FrAncestor_bulkdock_iter2

>  <name>  (519) 
LFLTVPQHHZRMMK-UHFFFAOYSA-N-P54

$$$$
XEFQDOSLAQNTSN-UHFFFAOYSA-N-P54
     RDKit          3D

 15 15  0  0  0  0  0  0  0  0999 V2000
    5.3216  -38.8383    5.9097 C   0  0  0  0  0  0  0  0  0  0  0  0
    5.8491  -37.6062    6.6261 C   0  0  0  0  0  0  0  0  0  0  0  0
    6.7505  -37.9837    7.7958 C   0  0  0  0  0  0  0  0  0  0  0  0
    7.2518  -36.7747    8.4392 N   0  0  0  0  0  0  0  0  0  0  0  0
    6.5951  -36.2318    9.8711 S   0  0  0  0  0  0  0  0  0  0  0  0
    5.1622  -36.3981    9.7852 O   0  0  0  0  0  0  0  0  0  0  0  0
    7.1480  -34.9187   10.1356 O   0  0  0  0  0  0  0  0  0  0  0  0
    7.2671  -37.3339   11.0687 C   0  0  0  0  0  0  0  0  0  0  0  0
    6.4100  -38.1739   11.7779 C   0  0  0  0  0  0  0  0  0  0  0  0
    5.0994  -38.2372   11.5130 F   0  0  0  0  0  0  0  0  0  0  0  0
    6.8869  -38.9779   12.8109 C   0  0  0  0  0  0  0  0  0  0  0  0
    8.2343  -38.9447   13.1494 C   0  0  0  0  0  0  0  0  0  0  0  0
    9.1019  -38.1137   12.4430 C   0  0  0  0  0  0  0  0  0  0  0  0
    8.6255  -37.3047   11.4028 C   0  0  0  0  0  0  0  0  0  0  0  0
    9.8007  -36.3211   10.6025 Cl  0  0  0  0  0  0  0  0  0  0  0  0
  1  2  1  0
  2  3  1  0
  3  4  1  0
  4  5  1  0
  5  6  2  0
  5  7  2  0
  5  8  1  0
  8  9  2  0
  9 10  1  0
  9 11  1  0
 11 12  2  0
 12 13  1  0
 13 14  2  0
 14 15  1  0
 14  8  1  0
M  END
>  <inchikey>  (520) 
XEFQDOSLAQNTSN-UHFFFAOYSA-N

>  <tags>  (520) 
fragmenstein_placed,CpKRS_FrAncestor_bulkdock_iter2

>  <ref_pdb>  (520) 
x0602b

>  <energy_score>  (520) 
-40.105555

>  <distance_score>  (520) 
0.20512

>  <HIPPO Pose ID>  (520) 
55247

>  <ref_mols>  (520) 
x0639c

>  <smiles>  (520) 
CCCNS(=O)(=O)c1c(F)cccc1Cl

>  <HIPPO Compound ID>  (520) 
450688

>  <alias>  (520) 
XEFQDOSLAQNTSN-UHFFFAOYSA-N-P54

>  <subsites>  (520) 


>  <placement_batch>  (520) 
CpKRS_FrAncestor_bulkdock_iter2

>  <name>  (520) 
XEFQDOSLAQNTSN-UHFFFAOYSA-N-P54

$$$$
KBRMTXKAPAUQNF-UHFFFAOYSA-N-P52
     RDKit          3D

 14 14  0  0  0  0  0  0  0  0999 V2000
   20.4755   13.2298   24.8273 C   0  0  0  0  0  0  0  0  0  0  0  0
   20.5136   12.2376   24.1515 C   0  0  0  0  0  0  0  0  0  0  0  0
   20.4771   11.0046   23.3582 C   0  0  0  0  0  0  0  0  0  0  0  0
   21.1610    9.9525   24.0047 O   0  0  0  0  0  0  0  0  0  0  0  0
   22.5221    9.8941   23.9695 C   0  0  0  0  0  0  0  0  0  0  0  0
   23.3562   10.6672   23.1625 C   0  0  0  0  0  0  0  0  0  0  0  0
   24.7451   10.5047   23.2054 C   0  0  0  0  0  0  0  0  0  0  0  0
   25.3157    9.5506   24.0424 C   0  0  0  0  0  0  0  0  0  0  0  0
   24.4966    8.7608   24.8436 C   0  0  0  0  0  0  0  0  0  0  0  0
   23.1087    8.9456   24.8093 C   0  0  0  0  0  0  0  0  0  0  0  0
   22.0718    7.9923   25.8809 S   0  0  0  0  0  0  0  0  0  0  0  0
   21.0686    7.1772   24.8078 N   0  0  0  0  0  0  0  0  0  0  0  0
   22.9081    6.9950   26.5107 O   0  0  0  0  0  0  0  0  0  0  0  0
   21.2529    8.8916   26.6631 O   0  0  0  0  0  0  0  0  0  0  0  0
  1  2  3  0
  2  3  1  0
  3  4  1  0
  4  5  1  0
  5  6  2  0
  6  7  1  0
  7  8  2  0
  8  9  1  0
  9 10  2  0
 10 11  1  0
 11 12  1  0
 11 13  2  0
 11 14  2  0
 10  5  1  0
M  END
>  <inchikey>  (521) 
KBRMTXKAPAUQNF-UHFFFAOYSA-N

>  <tags>  (521) 
fragmenstein_placed,CpKRS_FrAncestor_bulkdock_iter2

>  <ref_pdb>  (521) 
x0602b

>  <energy_score>  (521) 
-16.904725

>  <distance_score>  (521) 
0.406497

>  <HIPPO Pose ID>  (521) 
55248

>  <ref_mols>  (521) 
x0639a

>  <smiles>  (521) 
C#CCOc1ccccc1S(N)(=O)=O

>  <HIPPO Compound ID>  (521) 
450689

>  <alias>  (521) 
KBRMTXKAPAUQNF-UHFFFAOYSA-N-P52

>  <subsites>  (521) 


>  <placement_batch>  (521) 
CpKRS_FrAncestor_bulkdock_iter2

>  <name>  (521) 
KBRMTXKAPAUQNF-UHFFFAOYSA-N-P52

$$$$
SNFCSHBQRQHEQI-UHFFFAOYSA-N-P54
     RDKit          3D

 14 14  0  0  0  0  0  0  0  0999 V2000
   11.7169  -36.1672   11.4008 C   0  0  0  0  0  0  0  0  0  0  0  0
   10.8408  -36.9922   10.4650 C   0  0  0  0  0  0  0  0  0  0  0  0
   11.2514  -36.7540    9.0138 C   0  0  0  0  0  0  0  0  0  0  0  0
    9.4753  -36.5675   10.5827 O   0  0  0  0  0  0  0  0  0  0  0  0
    8.6197  -37.3519   11.3080 C   0  0  0  0  0  0  0  0  0  0  0  0
    9.0262  -38.1685   12.3679 C   0  0  0  0  0  0  0  0  0  0  0  0
    8.0988  -38.9458   13.0692 C   0  0  0  0  0  0  0  0  0  0  0  0
    6.7519  -38.9206   12.7220 C   0  0  0  0  0  0  0  0  0  0  0  0
    6.3237  -38.0947   11.6874 C   0  0  0  0  0  0  0  0  0  0  0  0
    7.2536  -37.3019   10.9968 C   0  0  0  0  0  0  0  0  0  0  0  0
    6.6419  -36.1448    9.7995 S   0  0  0  0  0  0  0  0  0  0  0  0
    7.3602  -36.6452    8.3627 N   0  0  0  0  0  0  0  0  0  0  0  0
    5.2172  -36.3496    9.6608 O   0  0  0  0  0  0  0  0  0  0  0  0
    7.1802  -34.8400   10.1174 O   0  0  0  0  0  0  0  0  0  0  0  0
  1  2  1  0
  2  3  1  0
  2  4  1  0
  4  5  1  0
  5  6  2  0
  6  7  1  0
  7  8  2  0
  8  9  1  0
  9 10  2  0
 10 11  1  0
 11 12  1  0
 11 13  2  0
 11 14  2  0
 10  5  1  0
M  END
>  <inchikey>  (522) 
SNFCSHBQRQHEQI-UHFFFAOYSA-N

>  <tags>  (522) 
fragmenstein_placed,CpKRS_FrAncestor_bulkdock_iter2

>  <ref_pdb>  (522) 
x0602b

>  <energy_score>  (522) 
-37.303356

>  <distance_score>  (522) 
0.45841

>  <HIPPO Pose ID>  (522) 
55253

>  <ref_mols>  (522) 
x0639c

>  <smiles>  (522) 
CC(C)Oc1ccccc1S(N)(=O)=O

>  <HIPPO Compound ID>  (522) 
450690

>  <alias>  (522) 
SNFCSHBQRQHEQI-UHFFFAOYSA-N-P54

>  <subsites>  (522) 


>  <placement_batch>  (522) 
CpKRS_FrAncestor_bulkdock_iter2

>  <name>  (522) 
SNFCSHBQRQHEQI-UHFFFAOYSA-N-P54

$$$$
ZAXOTNRUSOIDKV-UHFFFAOYSA-N-P51
     RDKit          3D

 12 12  0  0  0  0  0  0  0  0999 V2000
    5.1765  -11.1799   22.8603 C   0  0  0  0  0  0  0  0  0  0  0  0
    4.1061  -12.0045   23.5668 C   0  0  0  0  0  0  0  0  0  0  0  0
    3.0403  -12.3641   22.5504 C   0  0  0  0  0  0  0  0  0  0  0  0
    4.7293  -13.1701   24.0956 O   0  0  0  0  0  0  0  0  0  0  0  0
    4.1128  -13.7744   25.1576 C   0  0  0  0  0  0  0  0  0  0  0  0
    2.7822  -13.5845   25.5185 C   0  0  0  0  0  0  0  0  0  0  0  0
    2.2626  -14.2768   26.6052 C   0  0  0  0  0  0  0  0  0  0  0  0
    3.0901  -15.1135   27.3422 C   0  0  0  0  0  0  0  0  0  0  0  0
    2.6187  -15.8816   28.5369 C   0  0  0  0  0  0  0  0  0  0  0  0
    1.4976  -15.2518   29.2433 N   0  0  0  0  0  0  0  0  0  0  0  0
    4.4017  -15.2490   26.8971 C   0  0  0  0  0  0  0  0  0  0  0  0
    4.9323  -14.6002   25.8375 N   0  0  0  0  0  0  0  0  0  0  0  0
  1  2  1  0
  2  3  1  0
  2  4  1  0
  4  5  1  0
  5  6  2  0
  6  7  1  0
  7  8  2  0
  8  9  1  0
  9 10  1  0
  8 11  1  0
 11 12  2  0
 12  5  1  0
M  END
>  <inchikey>  (523) 
ZAXOTNRUSOIDKV-UHFFFAOYSA-N

>  <tags>  (523) 
fragmenstein_placed,CpKRS_FrAncestor_bulkdock_iter2

>  <ref_pdb>  (523) 
x0602b

>  <energy_score>  (523) 
-5.904747

>  <distance_score>  (523) 
0.409445

>  <HIPPO Pose ID>  (523) 
55258

>  <ref_mols>  (523) 
x0634b

>  <smiles>  (523) 
CC(C)Oc1ccc(CN)cn1

>  <HIPPO Compound ID>  (523) 
450691

>  <alias>  (523) 
ZAXOTNRUSOIDKV-UHFFFAOYSA-N-P51

>  <subsites>  (523) 


>  <placement_batch>  (523) 
CpKRS_FrAncestor_bulkdock_iter2

>  <name>  (523) 
ZAXOTNRUSOIDKV-UHFFFAOYSA-N-P51

$$$$
MZGGIWMWLZNQIX-UHFFFAOYSA-N-P51
     RDKit          3D

 12 12  0  0  0  0  0  0  0  0999 V2000
    5.2073  -11.7010   21.7113 C   0  0  0  0  0  0  0  0  0  0  0  0
    4.7589  -11.0585   22.9962 C   0  0  0  0  0  0  0  0  0  0  0  0
    3.8407  -11.9832   23.7721 C   0  0  0  0  0  0  0  0  0  0  0  0
    4.5407  -13.1760   24.1060 O   0  0  0  0  0  0  0  0  0  0  0  0
    3.9737  -13.8662   25.1430 C   0  0  0  0  0  0  0  0  0  0  0  0
    2.6134  -13.8333   25.4359 C   0  0  0  0  0  0  0  0  0  0  0  0
    2.1541  -14.4753   26.5791 C   0  0  0  0  0  0  0  0  0  0  0  0
    3.0588  -15.1421   27.3969 C   0  0  0  0  0  0  0  0  0  0  0  0
    2.6727  -15.8387   28.6619 C   0  0  0  0  0  0  0  0  0  0  0  0
    1.4934  -15.2812   29.3274 N   0  0  0  0  0  0  0  0  0  0  0  0
    4.3849  -15.1824   26.9698 C   0  0  0  0  0  0  0  0  0  0  0  0
    4.8668  -14.5563   25.8763 N   0  0  0  0  0  0  0  0  0  0  0  0
  1  2  1  0
  2  3  1  0
  3  4  1  0
  4  5  1  0
  5  6  2  0
  6  7  1  0
  7  8  2  0
  8  9  1  0
  9 10  1  0
  8 11  1  0
 11 12  2  0
 12  5  1  0
M  END
>  <inchikey>  (524) 
MZGGIWMWLZNQIX-UHFFFAOYSA-N

>  <tags>  (524) 
fragmenstein_placed,CpKRS_FrAncestor_bulkdock_iter2

>  <ref_pdb>  (524) 
x0602b

>  <energy_score>  (524) 
-11.617723

>  <distance_score>  (524) 
0.513411

>  <HIPPO Pose ID>  (524) 
55260

>  <ref_mols>  (524) 
x0634b

>  <smiles>  (524) 
CCCOc1ccc(CN)cn1

>  <HIPPO Compound ID>  (524) 
450692

>  <alias>  (524) 
MZGGIWMWLZNQIX-UHFFFAOYSA-N-P51

>  <subsites>  (524) 


>  <placement_batch>  (524) 
CpKRS_FrAncestor_bulkdock_iter2

>  <name>  (524) 
MZGGIWMWLZNQIX-UHFFFAOYSA-N-P51

$$$$
BNNHZEKFKMAUEZ-UHFFFAOYSA-N-P51
     RDKit          3D

 12 12  0  0  0  0  0  0  0  0999 V2000
    2.9960  -12.4239   22.6124 C   0  0  0  0  0  0  0  0  0  0  0  0
    4.0779  -12.0756   23.6175 C   0  0  0  0  0  0  0  0  0  0  0  0
    5.1561  -11.2751   22.8937 C   0  0  0  0  0  0  0  0  0  0  0  0
    4.6855  -13.2475   24.1569 O   0  0  0  0  0  0  0  0  0  0  0  0
    4.0729  -13.8388   25.2294 C   0  0  0  0  0  0  0  0  0  0  0  0
    2.7524  -13.6122   25.6148 C   0  0  0  0  0  0  0  0  0  0  0  0
    2.2328  -14.2837   26.7174 C   0  0  0  0  0  0  0  0  0  0  0  0
    3.0570  -15.1512   27.4175 C   0  0  0  0  0  0  0  0  0  0  0  0
    2.5548  -15.8089   28.6291 C   0  0  0  0  0  0  0  0  0  0  0  0
    3.2328  -16.5664   29.3114 O   0  0  0  0  0  0  0  0  0  0  0  0
    4.3579  -15.3229   26.9798 C   0  0  0  0  0  0  0  0  0  0  0  0
    4.8826  -14.6853   25.9035 N   0  0  0  0  0  0  0  0  0  0  0  0
  1  2  1  0
  2  3  1  0
  2  4  1  0
  4  5  1  0
  5  6  2  0
  6  7  1  0
  7  8  2  0
  8  9  1  0
  9 10  2  0
  8 11  1  0
 11 12  2  0
 12  5  1  0
M  END
>  <inchikey>  (525) 
BNNHZEKFKMAUEZ-UHFFFAOYSA-N

>  <tags>  (525) 
fragmenstein_placed,CpKRS_FrAncestor_bulkdock_iter2

>  <ref_pdb>  (525) 
x0602b

>  <energy_score>  (525) 
-4.737187

>  <distance_score>  (525) 
0.421809

>  <HIPPO Pose ID>  (525) 
55323

>  <ref_mols>  (525) 
x0634b

>  <smiles>  (525) 
CC(C)Oc1ccc(C=O)cn1

>  <HIPPO Compound ID>  (525) 
450697

>  <alias>  (525) 
BNNHZEKFKMAUEZ-UHFFFAOYSA-N-P51

>  <subsites>  (525) 


>  <placement_batch>  (525) 
CpKRS_FrAncestor_bulkdock_iter2

>  <name>  (525) 
BNNHZEKFKMAUEZ-UHFFFAOYSA-N-P51

$$$$
PMRMSQMOWUTDDH-UHFFFAOYSA-N-P51
     RDKit          3D

 12 12  0  0  0  0  0  0  0  0999 V2000
    5.3793  -10.5994   21.8439 C   0  0  0  0  0  0  0  0  0  0  0  0
    4.7782  -11.4415   22.4529 C   0  0  0  0  0  0  0  0  0  0  0  0
    3.9591  -12.3781   23.2349 C   0  0  0  0  0  0  0  0  0  0  0  0
    4.7791  -13.1610   24.0926 O   0  0  0  0  0  0  0  0  0  0  0  0
    4.1350  -13.8423   25.0907 C   0  0  0  0  0  0  0  0  0  0  0  0
    2.7622  -13.8041   25.3290 C   0  0  0  0  0  0  0  0  0  0  0  0
    2.2403  -14.4734   26.4352 C   0  0  0  0  0  0  0  0  0  0  0  0
    3.1026  -15.1798   27.2625 C   0  0  0  0  0  0  0  0  0  0  0  0
    2.5830  -15.8363   28.4709 C   0  0  0  0  0  0  0  0  0  0  0  0
    3.2774  -16.4879   29.2407 O   0  0  0  0  0  0  0  0  0  0  0  0
    4.4467  -15.2061   26.9389 C   0  0  0  0  0  0  0  0  0  0  0  0
    4.9798  -14.5466   25.8783 N   0  0  0  0  0  0  0  0  0  0  0  0
  1  2  3  0
  2  3  1  0
  3  4  1  0
  4  5  1  0
  5  6  2  0
  6  7  1  0
  7  8  2  0
  8  9  1  0
  9 10  2  0
  8 11  1  0
 11 12  2  0
 12  5  1  0
M  END
>  <inchikey>  (526) 
PMRMSQMOWUTDDH-UHFFFAOYSA-N

>  <tags>  (526) 
fragmenstein_placed,CpKRS_FrAncestor_bulkdock_iter2

>  <ref_pdb>  (526) 
x0602b

>  <energy_score>  (526) 
-1.605657

>  <distance_score>  (526) 
0.331323

>  <HIPPO Pose ID>  (526) 
55325

>  <ref_mols>  (526) 
x0634b

>  <smiles>  (526) 
C#CCOc1ccc(C=O)cn1

>  <HIPPO Compound ID>  (526) 
450698

>  <alias>  (526) 
PMRMSQMOWUTDDH-UHFFFAOYSA-N-P51

>  <subsites>  (526) 


>  <placement_batch>  (526) 
CpKRS_FrAncestor_bulkdock_iter2

>  <name>  (526) 
PMRMSQMOWUTDDH-UHFFFAOYSA-N-P51

$$$$
OOIMOWCIYNEWCF-UHFFFAOYSA-N-P51
     RDKit          3D

 13 13  0  0  0  0  0  0  0  0999 V2000
    5.1797  -11.7857   22.2518 C   0  0  0  0  0  0  0  0  0  0  0  0
    4.5754  -12.0103   23.6338 C   0  0  0  0  0  0  0  0  0  0  0  0
    3.4508  -10.9964   23.8473 C   0  0  0  0  0  0  0  0  0  0  0  0
    4.0897  -13.3492   23.6351 O   0  0  0  0  0  0  0  0  0  0  0  0
    3.7965  -13.8170   24.8920 C   0  0  0  0  0  0  0  0  0  0  0  0
    2.4560  -13.8789   25.2440 C   0  0  0  0  0  0  0  0  0  0  0  0
    2.1089  -14.5228   26.4244 C   0  0  0  0  0  0  0  0  0  0  0  0
    3.1149  -15.0993   27.2016 C   0  0  0  0  0  0  0  0  0  0  0  0
    2.8117  -15.7985   28.4689 C   0  0  0  0  0  0  0  0  0  0  0  0
    3.4416  -16.7329   28.9272 O   0  0  0  0  0  0  0  0  0  0  0  0
    1.7413  -15.2708   29.1051 O   0  0  0  0  0  0  0  0  0  0  0  0
    4.4263  -15.0106   26.7494 C   0  0  0  0  0  0  0  0  0  0  0  0
    4.7996  -14.3565   25.6162 N   0  0  0  0  0  0  0  0  0  0  0  0
  1  2  1  0
  2  3  1  0
  2  4  1  0
  4  5  1  0
  5  6  2  0
  6  7  1  0
  7  8  2  0
  8  9  1  0
  9 10  2  0
  9 11  1  0
  8 12  1  0
 12 13  2  0
 13  5  1  0
M  END
>  <inchikey>  (527) 
OOIMOWCIYNEWCF-UHFFFAOYSA-N

>  <tags>  (527) 
fragmenstein_placed,CpKRS_FrAncestor_bulkdock_iter2

>  <ref_pdb>  (527) 
x0602b

>  <energy_score>  (527) 
-13.518972

>  <distance_score>  (527) 
0.527644

>  <HIPPO Pose ID>  (527) 
55329

>  <ref_mols>  (527) 
x0634b

>  <smiles>  (527) 
CC(C)Oc1ccc(C(=O)O)cn1

>  <HIPPO Compound ID>  (527) 
450700

>  <alias>  (527) 
OOIMOWCIYNEWCF-UHFFFAOYSA-N-P51

>  <subsites>  (527) 


>  <placement_batch>  (527) 
CpKRS_FrAncestor_bulkdock_iter2

>  <name>  (527) 
OOIMOWCIYNEWCF-UHFFFAOYSA-N-P51

$$$$
QMZPLCOKXAKKSW-UHFFFAOYSA-N-P40
     RDKit          3D

 12 12  0  0  0  0  0  0  0  0999 V2000
    5.3550   -8.0304   21.9563 C   0  0  0  0  0  0  0  0  0  0  0  0
    5.8114   -8.4716   23.3407 C   0  0  0  0  0  0  0  0  0  0  0  0
    6.2426   -7.3092   24.2298 C   0  0  0  0  0  0  0  0  0  0  0  0
    4.7202   -9.0774   24.0442 O   0  0  0  0  0  0  0  0  0  0  0  0
    4.6978  -10.4357   23.8587 C   0  0  0  0  0  0  0  0  0  0  0  0
    4.5548  -11.2282   24.9846 C   0  0  0  0  0  0  0  0  0  0  0  0
    4.4103  -12.6035   24.8094 C   0  0  0  0  0  0  0  0  0  0  0  0
    4.2358  -13.5198   25.9885 C   0  0  0  0  0  0  0  0  0  0  0  0
    2.9700  -14.2435   25.9152 N   0  0  0  0  0  0  0  0  0  0  0  0
    4.4175  -13.1032   23.5047 C   0  0  0  0  0  0  0  0  0  0  0  0
    4.5553  -12.2214   22.4471 C   0  0  0  0  0  0  0  0  0  0  0  0
    4.6810  -10.8895   22.5937 N   0  0  0  0  0  0  0  0  0  0  0  0
  1  2  1  0
  2  3  1  0
  2  4  1  0
  4  5  1  0
  5  6  2  0
  6  7  1  0
  7  8  1  0
  8  9  1  0
  7 10  2  0
 10 11  1  0
 11 12  2  0
 12  5  1  0
M  END
>  <inchikey>  (528) 
QMZPLCOKXAKKSW-UHFFFAOYSA-N

>  <tags>  (528) 
fragmenstein_placed,CpKRS_FrAncestor_bulkdock_iter2

>  <ref_pdb>  (528) 
x0602b

>  <energy_score>  (528) 
-11.332457

>  <distance_score>  (528) 
0.632043

>  <HIPPO Pose ID>  (528) 
55336

>  <ref_mols>  (528) 
x0602b

>  <smiles>  (528) 
CC(C)Oc1cc(CN)ccn1

>  <HIPPO Compound ID>  (528) 
450702

>  <alias>  (528) 
QMZPLCOKXAKKSW-UHFFFAOYSA-N-P40

>  <subsites>  (528) 


>  <placement_batch>  (528) 
CpKRS_FrAncestor_bulkdock_iter2

>  <name>  (528) 
QMZPLCOKXAKKSW-UHFFFAOYSA-N-P40

$$$$
XGLJDSDZRRWGKG-UHFFFAOYSA-N-P51
     RDKit          3D

 12 12  0  0  0  0  0  0  0  0999 V2000
    0.6860  -15.4074   29.8154 C   0  0  0  0  0  0  0  0  0  0  0  0
    1.6204  -14.9891   28.9594 C   0  0  0  0  0  0  0  0  0  0  0  0
    2.3988  -15.8581   28.0261 C   0  0  2  0  0  0  0  0  0  0  0  0
    3.2943  -16.6203   28.8290 O   0  0  0  0  0  0  0  0  0  0  0  0
    3.0840  -15.0711   26.9438 C   0  0  0  0  0  0  0  0  0  0  0  0
    2.3317  -14.2832   26.0664 C   0  0  0  0  0  0  0  0  0  0  0  0
    2.9584  -13.5801   25.0439 C   0  0  0  0  0  0  0  0  0  0  0  0
    4.3325  -13.6960   24.9041 C   0  0  0  0  0  0  0  0  0  0  0  0
    5.0692  -13.0773   23.9370 O   0  0  0  0  0  0  0  0  0  0  0  0
    4.3568  -12.3882   22.9243 C   0  0  0  0  0  0  0  0  0  0  0  0
    5.0896  -14.4402   25.7393 N   0  0  0  0  0  0  0  0  0  0  0  0
    4.4536  -15.1008   26.7341 C   0  0  0  0  0  0  0  0  0  0  0  0
  1  2  2  0
  2  3  1  0
  3  4  1  1
  3  5  1  0
  5  6  2  0
  6  7  1  0
  7  8  2  0
  8  9  1  0
  9 10  1  0
  8 11  1  0
 11 12  2  0
 12  5  1  0
M  END
>  <inchikey>  (529) 
XGLJDSDZRRWGKG-UHFFFAOYSA-N

>  <tags>  (529) 
fragmenstein_placed,CpKRS_FrAncestor_bulkdock_iter2

>  <ref_pdb>  (529) 
x0602b

>  <energy_score>  (529) 
-2.320739

>  <distance_score>  (529) 
0.445086

>  <HIPPO Pose ID>  (529) 
55376

>  <ref_mols>  (529) 
x0634b

>  <smiles>  (529) 
C=CC(O)c1ccc(OC)nc1

>  <HIPPO Compound ID>  (529) 
450707

>  <alias>  (529) 
XGLJDSDZRRWGKG-UHFFFAOYSA-N-P51

>  <subsites>  (529) 


>  <placement_batch>  (529) 
CpKRS_FrAncestor_bulkdock_iter2

>  <name>  (529) 
XGLJDSDZRRWGKG-UHFFFAOYSA-N-P51

$$$$
LVTJUYBHZPUHMF-UHFFFAOYSA-N-P51
     RDKit          3D

 13 13  0  0  0  0  0  0  0  0999 V2000
    3.1365  -11.9979   22.4293 C   0  0  0  0  0  0  0  0  0  0  0  0
    3.9727  -12.0399   23.6853 C   0  0  0  0  0  0  0  0  0  0  0  0
    5.2375  -11.2460   23.3960 C   0  0  0  0  0  0  0  0  0  0  0  0
    4.3203  -13.3909   23.9507 O   0  0  0  0  0  0  0  0  0  0  0  0
    3.8290  -13.9134   25.1139 C   0  0  0  0  0  0  0  0  0  0  0  0
    4.7978  -14.5553   25.8132 N   0  0  0  0  0  0  0  0  0  0  0  0
    4.4286  -15.1762   26.9537 C   0  0  0  0  0  0  0  0  0  0  0  0
    3.1415  -15.1727   27.4756 C   0  0  0  0  0  0  0  0  0  0  0  0
    2.8365  -15.8846   28.7520 C   0  0  0  0  0  0  0  0  0  0  0  0
    1.6187  -15.4373   29.3449 O   0  0  0  0  0  0  0  0  0  0  0  0
    2.1639  -14.5220   26.7345 C   0  0  0  0  0  0  0  0  0  0  0  0
    2.4932  -13.8887   25.5375 C   0  0  0  0  0  0  0  0  0  0  0  0
    1.1559  -13.1784   24.7103 Cl  0  0  0  0  0  0  0  0  0  0  0  0
  1  2  1  0
  2  3  1  0
  2  4  1  0
  4  5  1  0
  5  6  2  0
  6  7  1  0
  7  8  2  0
  8  9  1  0
  9 10  1  0
  8 11  1  0
 11 12  2  0
 12 13  1  0
 12  5  1  0
M  END
>  <inchikey>  (530) 
LVTJUYBHZPUHMF-UHFFFAOYSA-N

>  <tags>  (530) 
fragmenstein_placed,CpKRS_FrAncestor_bulkdock_iter2

>  <ref_pdb>  (530) 
x0602b

>  <energy_score>  (530) 
-26.912404

>  <distance_score>  (530) 
0.592677

>  <HIPPO Pose ID>  (530) 
55403

>  <ref_mols>  (530) 
x0634b

>  <smiles>  (530) 
CC(C)Oc1ncc(CO)cc1Cl

>  <HIPPO Compound ID>  (530) 
450710

>  <alias>  (530) 
LVTJUYBHZPUHMF-UHFFFAOYSA-N-P51

>  <subsites>  (530) 


>  <placement_batch>  (530) 
CpKRS_FrAncestor_bulkdock_iter2

>  <name>  (530) 
LVTJUYBHZPUHMF-UHFFFAOYSA-N-P51

$$$$
PZDIVDDFLGKWID-UHFFFAOYSA-N-P51
     RDKit          3D

 14 14  0  0  0  0  0  0  0  0999 V2000
    3.6682  -10.9769   24.0387 C   0  0  0  0  0  0  0  0  0  0  0  0
    3.9428  -12.2982   23.3218 C   0  0  0  0  0  0  0  0  0  0  0  0
    4.9611  -12.0123   22.2177 C   0  0  0  0  0  0  0  0  0  0  0  0
    4.5427  -13.2690   24.1706 O   0  0  0  0  0  0  0  0  0  0  0  0
    3.8922  -13.9025   25.1811 C   0  0  0  0  0  0  0  0  0  0  0  0
    4.7967  -14.5935   25.9306 N   0  0  0  0  0  0  0  0  0  0  0  0
    4.3662  -15.2227   27.0522 C   0  0  0  0  0  0  0  0  0  0  0  0
    3.0657  -15.1712   27.5135 C   0  0  0  0  0  0  0  0  0  0  0  0
    2.7535  -15.7390   28.8393 C   0  0  0  0  0  0  0  0  0  0  0  0
    3.3632  -16.6315   29.3984 O   0  0  0  0  0  0  0  0  0  0  0  0
    1.7428  -15.0928   29.4575 O   0  0  0  0  0  0  0  0  0  0  0  0
    2.1328  -14.5125   26.7229 C   0  0  0  0  0  0  0  0  0  0  0  0
    2.5336  -13.8945   25.5253 C   0  0  0  0  0  0  0  0  0  0  0  0
    1.2352  -13.2160   24.6058 Cl  0  0  0  0  0  0  0  0  0  0  0  0
  1  2  1  0
  2  3  1  0
  2  4  1  0
  4  5  1  0
  5  6  2  0
  6  7  1  0
  7  8  2  0
  8  9  1  0
  9 10  2  0
  9 11  1  0
  8 12  1  0
 12 13  2  0
 13 14  1  0
 13  5  1  0
M  END
>  <inchikey>  (531) 
PZDIVDDFLGKWID-UHFFFAOYSA-N

>  <tags>  (531) 
fragmenstein_placed,CpKRS_FrAncestor_bulkdock_iter2

>  <ref_pdb>  (531) 
x0602b

>  <energy_score>  (531) 
-29.574655

>  <distance_score>  (531) 
0.453956

>  <HIPPO Pose ID>  (531) 
55405

>  <ref_mols>  (531) 
x0634b

>  <smiles>  (531) 
CC(C)Oc1ncc(C(=O)O)cc1Cl

>  <HIPPO Compound ID>  (531) 
450711

>  <alias>  (531) 
PZDIVDDFLGKWID-UHFFFAOYSA-N-P51

>  <subsites>  (531) 


>  <placement_batch>  (531) 
CpKRS_FrAncestor_bulkdock_iter2

>  <name>  (531) 
PZDIVDDFLGKWID-UHFFFAOYSA-N-P51

$$$$
OOPHEEVBVYYFKQ-UHFFFAOYSA-N-P32
     RDKit          3D

 18 18  0  0  0  0  0  0  0  0999 V2000
    0.7593  -21.7201   11.0318 C   0  0  0  0  0  0  0  0  0  0  0  0
    0.3229  -22.9018   11.4829 C   0  0  0  0  0  0  0  0  0  0  0  0
    1.2035  -24.0101   11.9661 C   0  0  0  0  0  0  0  0  0  0  0  0
    0.9850  -24.1455   13.3693 O   0  0  0  0  0  0  0  0  0  0  0  0
    1.6506  -25.1834   13.9385 C   0  0  0  0  0  0  0  0  0  0  0  0
    2.3005  -25.9433   13.3521 O   0  0  0  0  0  0  0  0  0  0  0  0
    1.2905  -25.1263   15.4098 N   0  0  0  0  0  0  0  0  0  0  0  0
    1.7256  -25.9375   16.5077 C   0  0  0  0  0  0  0  0  0  0  0  0
    2.5343  -25.1768   17.5270 C   0  0  0  0  0  0  0  0  0  0  0  0
    3.4283  -24.1658   17.1409 C   0  0  0  0  0  0  0  0  0  0  0  0
    4.1525  -23.4398   18.0854 C   0  0  0  0  0  0  0  0  0  0  0  0
    3.9864  -23.7318   19.4340 C   0  0  0  0  0  0  0  0  0  0  0  0
    4.9095  -22.8848   20.6764 S   0  0  0  0  0  0  0  0  0  0  0  0
    6.3028  -22.4083   19.9025 N   0  0  0  0  0  0  0  0  0  0  0  0
    4.2082  -21.6903   21.0745 O   0  0  0  0  0  0  0  0  0  0  0  0
    5.3095  -23.9134   21.6068 O   0  0  0  0  0  0  0  0  0  0  0  0
    3.1484  -24.7777   19.8393 C   0  0  0  0  0  0  0  0  0  0  0  0
    2.4264  -25.4965   18.8873 C   0  0  0  0  0  0  0  0  0  0  0  0
  1  2  2  0
  2  3  1  0
  3  4  1  0
  4  5  1  0
  5  6  2  0
  5  7  1  0
  7  8  1  0
  8  9  1  0
  9 10  2  0
 10 11  1  0
 11 12  2  0
 12 13  1  0
 13 14  1  0
 13 15  2  0
 13 16  2  0
 12 17  1  0
 17 18  2  0
 18  9  1  0
M  END
>  <inchikey>  (532) 
OOPHEEVBVYYFKQ-UHFFFAOYSA-N

>  <tags>  (532) 
fragmenstein_placed,CpKRS_FrAncestor_bulkdock_iter2

>  <ref_pdb>  (532) 
x0602b

>  <energy_score>  (532) 
-25.485446

>  <distance_score>  (532) 
0.698717

>  <HIPPO Pose ID>  (532) 
55456

>  <ref_mols>  (532) 
x0487a

>  <smiles>  (532) 
C=CCOC(=O)NCc1ccc(S(N)(=O)=O)cc1

>  <HIPPO Compound ID>  (532) 
450722

>  <alias>  (532) 
OOPHEEVBVYYFKQ-UHFFFAOYSA-N-P32

>  <subsites>  (532) 


>  <placement_batch>  (532) 
CpKRS_FrAncestor_bulkdock_iter2

>  <name>  (532) 
OOPHEEVBVYYFKQ-UHFFFAOYSA-N-P32

$$$$
UFSZYMSAYRFRHJ-UHFFFAOYSA-O-P32
     RDKit          3D

 19 19  0  0  0  0  0  0  0  0999 V2000
   -0.7532  -22.2504   12.0576 C   0  0  0  0  0  0  0  0  0  0  0  0
    0.3074  -23.2871   12.3882 C   0  0  0  0  0  0  0  0  0  0  0  0
    0.0961  -24.5144   11.4991 C   0  0  0  0  0  0  0  0  0  0  0  0
    0.1599  -23.6247   13.7807 O   0  0  0  0  0  0  0  0  0  0  0  0
    1.1608  -24.3899   14.3090 C   0  0  0  0  0  0  0  0  0  0  0  0
    2.1359  -24.6433   13.7231 O   0  0  0  0  0  0  0  0  0  0  0  0
    0.6710  -24.8716   15.6870 N   0  0  0  0  0  0  0  0  0  0  0  0
    1.3052  -25.9670   16.7117 S   0  0  0  0  0  0  0  0  0  0  0  0
    0.2097  -26.4102   17.5474 O   0  0  0  0  0  0  0  0  0  0  0  0
    2.0555  -26.9043   15.9071 O   0  0  0  0  0  0  0  0  0  0  0  0
    2.4627  -25.0975   17.7398 C   0  0  0  0  0  0  0  0  0  0  0  0
    3.4231  -24.2666   17.1608 C   0  0  0  0  0  0  0  0  0  0  0  0
    4.2584  -23.4999   17.9779 C   0  0  0  0  0  0  0  0  0  0  0  0
    4.1384  -23.5780   19.3694 C   0  0  0  0  0  0  0  0  0  0  0  0
    4.8880  -22.6683   20.1999 N   0  0  0  0  0  0  0  0  0  0  0  0
    4.3468  -22.1942   21.4149 O   0  0  0  0  0  0  0  0  0  0  0  0
    6.1256  -22.1571   19.7788 O   0  0  0  0  0  0  0  0  0  0  0  0
    3.2283  -24.4632   19.9541 C   0  0  0  0  0  0  0  0  0  0  0  0
    2.3867  -25.2246   19.1346 C   0  0  0  0  0  0  0  0  0  0  0  0
  1  2  1  0
  2  3  1  0
  2  4  1  0
  4  5  1  0
  5  6  2  0
  5  7  1  0
  7  8  1  0
  8  9  2  0
  8 10  2  0
  8 11  1  0
 11 12  2  0
 12 13  1  0
 13 14  2  0
 14 15  1  0
 15 16  2  0
 15 17  1  0
 14 18  1  0
 18 19  2  0
 19 11  1  0
M  CHG  1  15   1
M  END
>  <inchikey>  (533) 
UFSZYMSAYRFRHJ-UHFFFAOYSA-O

>  <tags>  (533) 
fragmenstein_placed,CpKRS_FrAncestor_bulkdock_iter2

>  <ref_pdb>  (533) 
x0602b

>  <energy_score>  (533) 
-46.892765

>  <distance_score>  (533) 
0.691865

>  <HIPPO Pose ID>  (533) 
55458

>  <ref_mols>  (533) 
x0487a

>  <smiles>  (533) 
CC(C)OC(=O)NS(=O)(=O)c1ccc([N+](=O)O)cc1

>  <HIPPO Compound ID>  (533) 
450723

>  <alias>  (533) 
UFSZYMSAYRFRHJ-UHFFFAOYSA-O-P32

>  <subsites>  (533) 


>  <placement_batch>  (533) 
CpKRS_FrAncestor_bulkdock_iter2

>  <name>  (533) 
UFSZYMSAYRFRHJ-UHFFFAOYSA-O-P32

$$$$
OCCUYPVUTHBMLV-UHFFFAOYSA-N-P39
     RDKit          3D

 15 15  0  0  0  0  0  0  0  0999 V2000
   -0.0701  -16.5036   22.9713 C   0  0  0  0  0  0  0  0  0  0  0  0
    1.2930  -16.8843   23.5365 C   0  0  0  0  0  0  0  0  0  0  0  0
    1.2127  -18.1866   24.3047 C   0  0  0  0  0  0  0  0  0  0  0  0
    1.6847  -15.8363   24.4398 O   0  0  0  0  0  0  0  0  0  0  0  0
    3.0256  -15.6537   24.5775 C   0  0  0  0  0  0  0  0  0  0  0  0
    3.8429  -16.3185   24.0976 O   0  0  0  0  0  0  0  0  0  0  0  0
    3.1451  -14.3763   25.3820 N   0  0  0  0  0  0  0  0  0  0  0  0
    4.2906  -13.5787   25.6968 C   0  0  0  0  0  0  0  0  0  0  0  0
    4.5395  -12.5838   24.5913 C   0  0  0  0  0  0  0  0  0  0  0  0
    4.5854  -12.9979   23.2526 C   0  0  0  0  0  0  0  0  0  0  0  0
    4.7914  -12.0572   22.2617 C   0  0  0  0  0  0  0  0  0  0  0  0
    4.9679  -10.7462   22.5057 N   0  0  0  0  0  0  0  0  0  0  0  0
    4.9787  -10.3696   23.7984 C   0  0  0  0  0  0  0  0  0  0  0  0
    5.3174   -8.5417   24.1333 Br  0  0  0  0  0  0  0  0  0  0  0  0
    4.7600  -11.2321   24.8655 C   0  0  0  0  0  0  0  0  0  0  0  0
  1  2  1  0
  2  3  1  0
  2  4  1  0
  4  5  1  0
  5  6  2  0
  5  7  1  0
  7  8  1  0
  8  9  1  0
  9 10  2  0
 10 11  1  0
 11 12  2  0
 12 13  1  0
 13 14  1  0
 13 15  2  0
 15  9  1  0
M  END
>  <inchikey>  (534) 
OCCUYPVUTHBMLV-UHFFFAOYSA-N

>  <tags>  (534) 
fragmenstein_placed,CpKRS_FrAncestor_bulkdock_iter2

>  <ref_pdb>  (534) 
x0602b

>  <energy_score>  (534) 
-5.339719

>  <distance_score>  (534) 
0.964359

>  <HIPPO Pose ID>  (534) 
55460

>  <ref_mols>  (534) 
x0602a

>  <smiles>  (534) 
CC(C)OC(=O)NCc1ccnc(Br)c1

>  <HIPPO Compound ID>  (534) 
326139

>  <alias>  (534) 
OCCUYPVUTHBMLV-UHFFFAOYSA-N-P39

>  <subsites>  (534) 


>  <placement_batch>  (534) 
CpKRS_FrAncestor_bulkdock_iter2

>  <name>  (534) 
OCCUYPVUTHBMLV-UHFFFAOYSA-N-P39

$$$$
PUMHHJCFBUXUCJ-UHFFFAOYSA-N-P40
     RDKit          3D

 14 14  0  0  0  0  0  0  0  0999 V2000
   -0.1517  -14.9129   25.6612 C   0  0  0  0  0  0  0  0  0  0  0  0
    1.2575  -15.4563   25.4616 C   0  0  0  0  0  0  0  0  0  0  0  0
    1.3615  -16.9093   25.8923 C   0  0  0  0  0  0  0  0  0  0  0  0
    2.1298  -14.6214   26.2331 O   0  0  0  0  0  0  0  0  0  0  0  0
    3.4270  -14.6443   25.8246 C   0  0  0  0  0  0  0  0  0  0  0  0
    3.9034  -15.4753   25.1779 O   0  0  0  0  0  0  0  0  0  0  0  0
    3.9990  -13.3385   26.3178 N   0  0  0  0  0  0  0  0  0  0  0  0
    5.2532  -12.7154   26.0499 C   0  0  0  0  0  0  0  0  0  0  0  0
    5.1148  -11.9053   24.7884 C   0  0  0  0  0  0  0  0  0  0  0  0
    5.3687  -10.5342   24.7886 C   0  0  0  0  0  0  0  0  0  0  0  0
    5.2217   -9.8356   23.6012 C   0  0  0  0  0  0  0  0  0  0  0  0
    4.8185  -10.3925   22.4398 N   0  0  0  0  0  0  0  0  0  0  0  0
    4.6102  -11.7277   22.4489 C   0  0  0  0  0  0  0  0  0  0  0  0
    4.7403  -12.5121   23.5798 C   0  0  0  0  0  0  0  0  0  0  0  0
  1  2  1  0
  2  3  1  0
  2  4  1  0
  4  5  1  0
  5  6  2  0
  5  7  1  0
  7  8  1  0
  8  9  1  0
  9 10  2  0
 10 11  1  0
 11 12  2  0
 12 13  1  0
 13 14  2  0
 14  9  1  0
M  END
>  <inchikey>  (535) 
PUMHHJCFBUXUCJ-UHFFFAOYSA-N

>  <tags>  (535) 
fragmenstein_placed,CpKRS_FrAncestor_bulkdock_iter2

>  <ref_pdb>  (535) 
x0602b

>  <energy_score>  (535) 
-4.821411

>  <distance_score>  (535) 
0.784557

>  <HIPPO Pose ID>  (535) 
55463

>  <ref_mols>  (535) 
x0602b

>  <smiles>  (535) 
CC(C)OC(=O)NCc1ccncc1

>  <HIPPO Compound ID>  (535) 
450724

>  <alias>  (535) 
PUMHHJCFBUXUCJ-UHFFFAOYSA-N-P40

>  <subsites>  (535) 


>  <placement_batch>  (535) 
CpKRS_FrAncestor_bulkdock_iter2

>  <name>  (535) 
PUMHHJCFBUXUCJ-UHFFFAOYSA-N-P40

$$$$
WHEXQSKGMPYBIY-UHFFFAOYSA-N-P40
     RDKit          3D

 15 15  0  0  0  0  0  0  0  0999 V2000
   -0.1545  -14.9155   25.6755 C   0  0  0  0  0  0  0  0  0  0  0  0
    1.2503  -15.4678   25.4690 C   0  0  0  0  0  0  0  0  0  0  0  0
    1.3464  -16.9241   25.8892 C   0  0  0  0  0  0  0  0  0  0  0  0
    2.1301  -14.6441   26.2440 O   0  0  0  0  0  0  0  0  0  0  0  0
    3.4260  -14.6762   25.8339 C   0  0  0  0  0  0  0  0  0  0  0  0
    3.8971  -15.5126   25.1901 O   0  0  0  0  0  0  0  0  0  0  0  0
    4.0057  -13.3715   26.3208 N   0  0  0  0  0  0  0  0  0  0  0  0
    5.2625  -12.7566   26.0488 C   0  0  0  0  0  0  0  0  0  0  0  0
    5.1266  -11.9771   24.7685 C   0  0  0  0  0  0  0  0  0  0  0  0
    4.7622  -12.6116   23.5706 C   0  0  0  0  0  0  0  0  0  0  0  0
    4.6198  -11.8527   22.4230 C   0  0  0  0  0  0  0  0  0  0  0  0
    4.8078  -10.5179   22.3856 N   0  0  0  0  0  0  0  0  0  0  0  0
    5.1973   -9.9373   23.5369 C   0  0  0  0  0  0  0  0  0  0  0  0
    5.4035   -8.6138   23.5159 F   0  0  0  0  0  0  0  0  0  0  0  0
    5.3563  -10.6037   24.7392 C   0  0  0  0  0  0  0  0  0  0  0  0
  1  2  1  0
  2  3  1  0
  2  4  1  0
  4  5  1  0
  5  6  2  0
  5  7  1  0
  7  8  1  0
  8  9  1  0
  9 10  2  0
 10 11  1  0
 11 12  2  0
 12 13  1  0
 13 14  1  0
 13 15  2  0
 15  9  1  0
M  END
>  <inchikey>  (536) 
WHEXQSKGMPYBIY-UHFFFAOYSA-N

>  <tags>  (536) 
fragmenstein_placed,CpKRS_FrAncestor_bulkdock_iter2

>  <ref_pdb>  (536) 
x0602b

>  <energy_score>  (536) 
-9.833826

>  <distance_score>  (536) 
0.749656

>  <HIPPO Pose ID>  (536) 
55467

>  <ref_mols>  (536) 
x0602b

>  <smiles>  (536) 
CC(C)OC(=O)NCc1ccnc(F)c1

>  <HIPPO Compound ID>  (536) 
327155

>  <alias>  (536) 
WHEXQSKGMPYBIY-UHFFFAOYSA-N-P40

>  <subsites>  (536) 


>  <placement_batch>  (536) 
CpKRS_FrAncestor_bulkdock_iter2

>  <name>  (536) 
WHEXQSKGMPYBIY-UHFFFAOYSA-N-P40

$$$$
AISPPKSSOLMHOC-UHFFFAOYSA-N-P54
     RDKit          3D

 14 14  0  0  0  0  0  0  0  0999 V2000
    6.3078  -39.1035    8.2851 C   0  0  0  0  0  0  0  0  0  0  0  0
    6.6821  -37.7983    7.5944 C   0  0  0  0  0  0  0  0  0  0  0  0
    5.5416  -37.2135    6.7692 C   0  0  0  0  0  0  0  0  0  0  0  0
    7.2606  -36.8277    8.4567 O   0  0  0  0  0  0  0  0  0  0  0  0
    6.5565  -36.2983    9.8229 S   0  0  0  0  0  0  0  0  0  0  0  0
    5.1267  -36.5339    9.7585 O   0  0  0  0  0  0  0  0  0  0  0  0
    7.0364  -34.9590   10.1127 O   0  0  0  0  0  0  0  0  0  0  0  0
    7.2100  -37.3576   11.0949 C   0  0  0  0  0  0  0  0  0  0  0  0
    6.3073  -38.1500   11.8248 C   0  0  0  0  0  0  0  0  0  0  0  0
    6.7658  -38.9489   12.8700 C   0  0  0  0  0  0  0  0  0  0  0  0
    8.1192  -38.9561   13.1921 C   0  0  0  0  0  0  0  0  0  0  0  0
    9.0177  -38.1701   12.4695 C   0  0  0  0  0  0  0  0  0  0  0  0
    8.5709  -37.3650   11.4161 C   0  0  0  0  0  0  0  0  0  0  0  0
    9.8925  -36.3373   10.5240 Br  0  0  0  0  0  0  0  0  0  0  0  0
  1  2  1  0
  2  3  1  0
  2  4  1  0
  4  5  1  0
  5  6  2  0
  5  7  2  0
  5  8  1  0
  8  9  2  0
  9 10  1  0
 10 11  2  0
 11 12  1  0
 12 13  2  0
 13 14  1  0
 13  8  1  0
M  END
>  <inchikey>  (537) 
AISPPKSSOLMHOC-UHFFFAOYSA-N

>  <tags>  (537) 
fragmenstein_placed,CpKRS_FrAncestor_bulkdock_iter2

>  <ref_pdb>  (537) 
x0602b

>  <energy_score>  (537) 
-21.319332

>  <distance_score>  (537) 
0.268619

>  <HIPPO Pose ID>  (537) 
55483

>  <ref_mols>  (537) 
x0639c

>  <smiles>  (537) 
CC(C)OS(=O)(=O)c1ccccc1Br

>  <HIPPO Compound ID>  (537) 
450728

>  <alias>  (537) 
AISPPKSSOLMHOC-UHFFFAOYSA-N-P54

>  <subsites>  (537) 


>  <placement_batch>  (537) 
CpKRS_FrAncestor_bulkdock_iter2

>  <name>  (537) 
AISPPKSSOLMHOC-UHFFFAOYSA-N-P54

$$$$
GECLCEKRULIFPA-UHFFFAOYSA-N-P22
     RDKit          3D

 14 14  0  0  0  0  0  0  0  0999 V2000
   23.0568    7.6624   22.7687 C   0  0  0  0  0  0  0  0  0  0  0  0
   23.4542    8.2077   24.1404 C   0  0  1  0  0  0  0  0  0  0  0  0
   22.2447    8.7248   24.9185 C   0  0  0  0  0  0  0  0  0  0  0  0
   21.7172   10.3555   24.4036 S   0  0  0  0  0  0  0  0  0  0  0  0
   20.7288   10.0572   23.0869 N   0  0  0  0  0  0  0  0  0  0  0  0
   22.8305   11.1240   23.9015 O   0  0  0  0  0  0  0  0  0  0  0  0
   20.8332   10.8987   25.4144 O   0  0  0  0  0  0  0  0  0  0  0  0
   24.2061    7.1976   24.9976 C   0  0  0  0  0  0  0  0  0  0  0  0
   25.3685    7.6173   25.6706 C   0  0  0  0  0  0  0  0  0  0  0  0
   26.0606    6.7581   26.5272 C   0  0  0  0  0  0  0  0  0  0  0  0
   25.5991    5.4622   26.7225 C   0  0  0  0  0  0  0  0  0  0  0  0
   24.4578    5.0380   26.0535 C   0  0  0  0  0  0  0  0  0  0  0  0
   24.0181    3.7917   26.2598 F   0  0  0  0  0  0  0  0  0  0  0  0
   23.7581    5.8860   25.1964 C   0  0  0  0  0  0  0  0  0  0  0  0
  2  1  1  6
  2  3  1  0
  3  4  1  0
  4  5  1  0
  4  6  2  0
  4  7  2  0
  2  8  1  0
  8  9  2  0
  9 10  1  0
 10 11  2  0
 11 12  1  0
 12 13  1  0
 12 14  2  0
 14  8  1  0
M  END
>  <inchikey>  (538) 
GECLCEKRULIFPA-UHFFFAOYSA-N

>  <tags>  (538) 
fragmenstein_placed,CpKRS_FrAncestor_bulkdock_iter2

>  <ref_pdb>  (538) 
x0602b

>  <energy_score>  (538) 
-42.14203

>  <distance_score>  (538) 
0.332148

>  <HIPPO Pose ID>  (538) 
55485

>  <ref_mols>  (538) 
x0472b

>  <smiles>  (538) 
CC(CS(N)(=O)=O)c1cccc(F)c1

>  <HIPPO Compound ID>  (538) 
450729

>  <alias>  (538) 
GECLCEKRULIFPA-UHFFFAOYSA-N-P22

>  <subsites>  (538) 


>  <placement_batch>  (538) 
CpKRS_FrAncestor_bulkdock_iter2

>  <name>  (538) 
GECLCEKRULIFPA-UHFFFAOYSA-N-P22

$$$$
GDUBIQAGCVHMOE-UHFFFAOYSA-N-P31
     RDKit          3D

 16 16  0  0  0  0  0  0  0  0999 V2000
    0.9491   13.2609   40.4804 C   0  0  0  0  0  0  0  0  0  0  0  0
    0.2908   11.9331   40.1444 C   0  0  0  0  0  0  0  0  0  0  0  0
   -1.1846   11.9705   40.5458 C   0  0  0  0  0  0  0  0  0  0  0  0
    1.1120   10.5589   40.9289 S   0  0  0  0  0  0  0  0  0  0  0  0
    1.2886   10.8956   42.3272 O   0  0  0  0  0  0  0  0  0  0  0  0
    0.4137    9.3547   40.5215 O   0  0  0  0  0  0  0  0  0  0  0  0
    2.7370   10.3736   40.2261 C   0  0  0  0  0  0  0  0  0  0  0  0
    3.0194   10.8168   38.9335 C   0  0  0  0  0  0  0  0  0  0  0  0
    4.2189   10.4448   38.3296 C   0  0  0  0  0  0  0  0  0  0  0  0
    5.1231    9.6354   39.0221 C   0  0  0  0  0  0  0  0  0  0  0  0
    6.4931    8.9299   38.1465 S   0  0  0  0  0  0  0  0  0  0  0  0
    6.1664    7.2830   38.2879 N   0  0  0  0  0  0  0  0  0  0  0  0
    6.3177    9.2114   36.7403 O   0  0  0  0  0  0  0  0  0  0  0  0
    7.7078    9.2065   38.8614 O   0  0  0  0  0  0  0  0  0  0  0  0
    4.8878    9.2657   40.3486 C   0  0  0  0  0  0  0  0  0  0  0  0
    3.6832    9.6327   40.9499 C   0  0  0  0  0  0  0  0  0  0  0  0
  1  2  1  0
  2  3  1  0
  2  4  1  0
  4  5  2  0
  4  6  2  0
  4  7  1  0
  7  8  2  0
  8  9  1  0
  9 10  2  0
 10 11  1  0
 11 12  1  0
 11 13  2  0
 11 14  2  0
 10 15  1  0
 15 16  2  0
 16  7  1  0
M  END
>  <inchikey>  (539) 
GDUBIQAGCVHMOE-UHFFFAOYSA-N

>  <tags>  (539) 
fragmenstein_placed,CpKRS_FrAncestor_bulkdock_iter2

>  <ref_pdb>  (539) 
x0602b

>  <energy_score>  (539) 
-39.852697

>  <distance_score>  (539) 
0.687484

>  <HIPPO Pose ID>  (539) 
55488

>  <ref_mols>  (539) 
x0487b

>  <smiles>  (539) 
CC(C)S(=O)(=O)c1ccc(S(N)(=O)=O)cc1

>  <HIPPO Compound ID>  (539) 
450730

>  <alias>  (539) 
GDUBIQAGCVHMOE-UHFFFAOYSA-N-P31

>  <subsites>  (539) 


>  <placement_batch>  (539) 
CpKRS_FrAncestor_bulkdock_iter2

>  <name>  (539) 
GDUBIQAGCVHMOE-UHFFFAOYSA-N-P31

$$$$
YFBIKSYLMQKWKT-UHFFFAOYSA-N-P31
     RDKit          3D

 16 16  0  0  0  0  0  0  0  0999 V2000
    0.4234   14.1373   41.6399 C   0  0  0  0  0  0  0  0  0  0  0  0
   -0.2676   13.1300   40.7358 C   0  0  0  0  0  0  0  0  0  0  0  0
    0.7279   12.2373   40.0256 C   0  0  0  0  0  0  0  0  0  0  0  0
    1.2013   10.8040   40.9584 S   0  0  0  0  0  0  0  0  0  0  0  0
    1.5543   11.2268   42.2977 O   0  0  0  0  0  0  0  0  0  0  0  0
    0.2114    9.7754   40.7172 O   0  0  0  0  0  0  0  0  0  0  0  0
    2.7049   10.2516   40.1986 C   0  0  0  0  0  0  0  0  0  0  0  0
    3.0103   10.6091   38.8812 C   0  0  0  0  0  0  0  0  0  0  0  0
    4.2172   10.2108   38.3234 C   0  0  0  0  0  0  0  0  0  0  0  0
    5.0907    9.4418   39.0872 C   0  0  0  0  0  0  0  0  0  0  0  0
    6.6120    8.8951   38.3926 S   0  0  0  0  0  0  0  0  0  0  0  0
    7.6916    9.6548   39.3955 N   0  0  0  0  0  0  0  0  0  0  0  0
    6.7518    9.4831   37.0830 O   0  0  0  0  0  0  0  0  0  0  0  0
    6.6951    7.4737   38.6185 O   0  0  0  0  0  0  0  0  0  0  0  0
    4.7920    9.0783   40.4041 C   0  0  0  0  0  0  0  0  0  0  0  0
    3.5965    9.5007   40.9686 C   0  0  0  0  0  0  0  0  0  0  0  0
  1  2  1  0
  2  3  1  0
  3  4  1  0
  4  5  2  0
  4  6  2  0
  4  7  1  0
  7  8  2  0
  8  9  1  0
  9 10  2  0
 10 11  1  0
 11 12  1  0
 11 13  2  0
 11 14  2  0
 10 15  1  0
 15 16  2  0
 16  7  1  0
M  END
>  <inchikey>  (540) 
YFBIKSYLMQKWKT-UHFFFAOYSA-N

>  <tags>  (540) 
fragmenstein_placed,CpKRS_FrAncestor_bulkdock_iter2

>  <ref_pdb>  (540) 
x0602b

>  <energy_score>  (540) 
-42.887245

>  <distance_score>  (540) 
0.632818

>  <HIPPO Pose ID>  (540) 
55490

>  <ref_mols>  (540) 
x0487b

>  <smiles>  (540) 
CCCS(=O)(=O)c1ccc(S(N)(=O)=O)cc1

>  <HIPPO Compound ID>  (540) 
450731

>  <alias>  (540) 
YFBIKSYLMQKWKT-UHFFFAOYSA-N-P31

>  <subsites>  (540) 


>  <placement_batch>  (540) 
CpKRS_FrAncestor_bulkdock_iter2

>  <name>  (540) 
YFBIKSYLMQKWKT-UHFFFAOYSA-N-P31

$$$$
URVMYZCMDMIJIK-UHFFFAOYSA-N-P32
     RDKit          3D

 18 18  0  0  0  0  0  0  0  0999 V2000
   -2.0717  -23.9820   14.9964 C   0  0  0  0  0  0  0  0  0  0  0  0
   -1.2297  -23.7093   13.7604 C   0  0  0  0  0  0  0  0  0  0  0  0
    0.2691  -23.6989   14.0292 C   0  0  0  0  0  0  0  0  0  0  0  0
    0.9868  -25.2935   14.3918 S   0  0  0  0  0  0  0  0  0  0  0  0
    2.3882  -25.2553   14.0266 O   0  0  0  0  0  0  0  0  0  0  0  0
    0.1304  -26.3534   13.9085 O   0  0  0  0  0  0  0  0  0  0  0  0
    0.8883  -25.3224   16.0570 N   0  0  0  0  0  0  0  0  0  0  0  0
    1.8544  -26.1707   16.7484 C   0  0  0  0  0  0  0  0  0  0  0  0
    2.6596  -25.3594   17.7256 C   0  0  0  0  0  0  0  0  0  0  0  0
    3.4321  -24.2719   17.2748 C   0  0  0  0  0  0  0  0  0  0  0  0
    4.1304  -23.4651   18.1703 C   0  0  0  0  0  0  0  0  0  0  0  0
    4.0543  -23.7598   19.5252 C   0  0  0  0  0  0  0  0  0  0  0  0
    4.9331  -22.8389   20.7437 S   0  0  0  0  0  0  0  0  0  0  0  0
    6.3544  -22.3230   20.0369 N   0  0  0  0  0  0  0  0  0  0  0  0
    4.1524  -21.6895   21.1216 O   0  0  0  0  0  0  0  0  0  0  0  0
    5.3525  -23.8547   21.6813 O   0  0  0  0  0  0  0  0  0  0  0  0
    3.3122  -24.8592   19.9858 C   0  0  0  0  0  0  0  0  0  0  0  0
    2.6169  -25.6570   19.0884 C   0  0  0  0  0  0  0  0  0  0  0  0
  1  2  1  0
  2  3  1  0
  3  4  1  0
  4  5  2  0
  4  6  2  0
  4  7  1  0
  7  8  1  0
  8  9  1  0
  9 10  2  0
 10 11  1  0
 11 12  2  0
 12 13  1  0
 13 14  1  0
 13 15  2  0
 13 16  2  0
 12 17  1  0
 17 18  2  0
 18  9  1  0
M  END
>  <inchikey>  (541) 
URVMYZCMDMIJIK-UHFFFAOYSA-N

>  <tags>  (541) 
fragmenstein_placed,CpKRS_FrAncestor_bulkdock_iter2

>  <ref_pdb>  (541) 
x0602b

>  <energy_score>  (541) 
-86.295763

>  <distance_score>  (541) 
0.451076

>  <HIPPO Pose ID>  (541) 
55493

>  <ref_mols>  (541) 
x0487a

>  <smiles>  (541) 
CCCS(=O)(=O)NCc1ccc(S(N)(=O)=O)cc1

>  <HIPPO Compound ID>  (541) 
450733

>  <alias>  (541) 
URVMYZCMDMIJIK-UHFFFAOYSA-N-P32

>  <subsites>  (541) 


>  <placement_batch>  (541) 
CpKRS_FrAncestor_bulkdock_iter2

>  <name>  (541) 
URVMYZCMDMIJIK-UHFFFAOYSA-N-P32

$$$$
UVTWTLUVLMNEKY-UHFFFAOYSA-N-P32
     RDKit          3D

 18 18  0  0  0  0  0  0  0  0999 V2000
   -2.0989  -22.8083   13.6040 C   0  0  0  0  0  0  0  0  0  0  0  0
   -1.3303  -24.0197   14.1090 C   0  0  0  0  0  0  0  0  0  0  0  0
    0.1471  -23.9185   13.7579 C   0  0  0  0  0  0  0  0  0  0  0  0
    1.0999  -25.3246   14.3057 S   0  0  0  0  0  0  0  0  0  0  0  0
    2.4933  -25.0892   13.9933 O   0  0  0  0  0  0  0  0  0  0  0  0
    0.4558  -26.5466   13.8770 O   0  0  0  0  0  0  0  0  0  0  0  0
    0.9404  -25.2193   15.9673 N   0  0  0  0  0  0  0  0  0  0  0  0
    1.8185  -26.1204   16.7208 C   0  0  0  0  0  0  0  0  0  0  0  0
    2.6279  -25.3485   17.7291 C   0  0  0  0  0  0  0  0  0  0  0  0
    2.4398  -25.5811   19.0913 C   0  0  0  0  0  0  0  0  0  0  0  0
    3.1142  -24.8008   20.0170 C   0  0  0  0  0  0  0  0  0  0  0  0
    3.9755  -23.7777   19.5868 C   0  0  0  0  0  0  0  0  0  0  0  0
    4.7796  -22.8872   20.8718 S   0  0  0  0  0  0  0  0  0  0  0  0
    3.9062  -21.8255   21.3185 O   0  0  0  0  0  0  0  0  0  0  0  0
    5.2838  -23.9322   21.7362 O   0  0  0  0  0  0  0  0  0  0  0  0
    6.4194  -21.9746   20.1199 Cl  0  0  0  0  0  0  0  0  0  0  0  0
    4.2036  -23.5551   18.2357 C   0  0  0  0  0  0  0  0  0  0  0  0
    3.5279  -24.3489   17.3094 C   0  0  0  0  0  0  0  0  0  0  0  0
  1  2  1  0
  2  3  1  0
  3  4  1  0
  4  5  2  0
  4  6  2  0
  4  7  1  0
  7  8  1  0
  8  9  1  0
  9 10  2  0
 10 11  1  0
 11 12  2  0
 12 13  1  0
 13 14  2  0
 13 15  2  0
 13 16  1  0
 12 17  1  0
 17 18  2  0
 18  9  1  0
M  END
>  <inchikey>  (542) 
UVTWTLUVLMNEKY-UHFFFAOYSA-N

>  <tags>  (542) 
fragmenstein_placed,CpKRS_FrAncestor_bulkdock_iter2

>  <ref_pdb>  (542) 
x0602b

>  <energy_score>  (542) 
-22.496576

>  <distance_score>  (542) 
0.5191

>  <HIPPO Pose ID>  (542) 
55497

>  <ref_mols>  (542) 
x0487a

>  <smiles>  (542) 
CCCS(=O)(=O)NCc1ccc(S(=O)(=O)Cl)cc1

>  <HIPPO Compound ID>  (542) 
450735

>  <alias>  (542) 
UVTWTLUVLMNEKY-UHFFFAOYSA-N-P32

>  <subsites>  (542) 


>  <placement_batch>  (542) 
CpKRS_FrAncestor_bulkdock_iter2

>  <name>  (542) 
UVTWTLUVLMNEKY-UHFFFAOYSA-N-P32

$$$$
JTHKVPHZUWGGEO-UHFFFAOYSA-N-P32
     RDKit          3D

 18 18  0  0  0  0  0  0  0  0999 V2000
   -1.9261  -22.4501   13.9127 C   0  0  0  0  0  0  0  0  0  0  0  0
   -1.3185  -23.8073   14.2300 C   0  0  0  0  0  0  0  0  0  0  0  0
    0.1938  -23.7902   14.0553 C   0  0  0  0  0  0  0  0  0  0  0  0
    0.9647  -25.3498   14.4536 S   0  0  0  0  0  0  0  0  0  0  0  0
    0.1366  -26.4388   13.9839 O   0  0  0  0  0  0  0  0  0  0  0  0
    2.3640  -25.2784   14.0878 O   0  0  0  0  0  0  0  0  0  0  0  0
    0.8524  -25.3485   16.1196 N   0  0  0  0  0  0  0  0  0  0  0  0
    1.8214  -26.1751   16.8346 C   0  0  0  0  0  0  0  0  0  0  0  0
    2.6283  -25.3350   17.7868 C   0  0  0  0  0  0  0  0  0  0  0  0
    2.5178  -25.5199   19.1691 C   0  0  0  0  0  0  0  0  0  0  0  0
    3.2231  -24.6929   20.0351 C   0  0  0  0  0  0  0  0  0  0  0  0
    4.0326  -23.6766   19.5123 C   0  0  0  0  0  0  0  0  0  0  0  0
    4.9667  -22.7042   20.6417 S   0  0  0  0  0  0  0  0  0  0  0  0
    4.1363  -21.6224   21.1229 O   0  0  0  0  0  0  0  0  0  0  0  0
    5.5600  -23.6817   21.5255 O   0  0  0  0  0  0  0  0  0  0  0  0
    6.1629  -22.0326   19.8452 F   0  0  0  0  0  0  0  0  0  0  0  0
    4.1855  -23.4989   18.1432 C   0  0  0  0  0  0  0  0  0  0  0  0
    3.4748  -24.3296   17.2838 C   0  0  0  0  0  0  0  0  0  0  0  0
  1  2  1  0
  2  3  1  0
  3  4  1  0
  4  5  2  0
  4  6  2  0
  4  7  1  0
  7  8  1  0
  8  9  1  0
  9 10  2  0
 10 11  1  0
 11 12  2  0
 12 13  1  0
 13 14  2  0
 13 15  2  0
 13 16  1  0
 12 17  1  0
 17 18  2  0
 18  9  1  0
M  END
>  <inchikey>  (543) 
JTHKVPHZUWGGEO-UHFFFAOYSA-N

>  <tags>  (543) 
fragmenstein_placed,CpKRS_FrAncestor_bulkdock_iter2

>  <ref_pdb>  (543) 
x0602b

>  <energy_score>  (543) 
-37.52463

>  <distance_score>  (543) 
0.370303

>  <HIPPO Pose ID>  (543) 
55499

>  <ref_mols>  (543) 
x0487a

>  <smiles>  (543) 
CCCS(=O)(=O)NCc1ccc(S(=O)(=O)F)cc1

>  <HIPPO Compound ID>  (543) 
450736

>  <alias>  (543) 
JTHKVPHZUWGGEO-UHFFFAOYSA-N-P32

>  <subsites>  (543) 


>  <placement_batch>  (543) 
CpKRS_FrAncestor_bulkdock_iter2

>  <name>  (543) 
JTHKVPHZUWGGEO-UHFFFAOYSA-N-P32

$$$$
IFCXFSOKFSUXNE-UHFFFAOYSA-N-P31
     RDKit          3D

 18 18  0  0  0  0  0  0  0  0999 V2000
   -3.2945    8.5860   40.0906 C   0  0  0  0  0  0  0  0  0  0  0  0
   -3.3161   10.0201   40.5960 C   0  0  0  0  0  0  0  0  0  0  0  0
   -1.9473   10.5424   41.0219 C   0  0  0  0  0  0  0  0  0  0  0  0
   -0.8577   10.8745   39.6365 S   0  0  0  0  0  0  0  0  0  0  0  0
   -0.4039    9.6153   39.0888 O   0  0  0  0  0  0  0  0  0  0  0  0
   -1.4896   11.8707   38.7975 O   0  0  0  0  0  0  0  0  0  0  0  0
    0.4594   11.6107   40.3916 N   0  0  0  0  0  0  0  0  0  0  0  0
    0.3168   12.9795   40.8958 C   0  0  0  0  0  0  0  0  0  0  0  0
    1.4157   10.7600   41.1275 C   0  0  0  0  0  0  0  0  0  0  0  0
    2.7157   10.5115   40.3945 C   0  0  0  0  0  0  0  0  0  0  0  0
    3.7184    9.7483   41.0104 C   0  0  0  0  0  0  0  0  0  0  0  0
    4.8939    9.4251   40.3269 C   0  0  0  0  0  0  0  0  0  0  0  0
    5.0649    9.8238   38.9989 C   0  0  0  0  0  0  0  0  0  0  0  0
    6.4159    9.2306   37.9626 S   0  0  0  0  0  3  0  0  0  0  0  0
    6.2644    7.4708   38.3920 C   0  0  0  0  0  0  0  0  0  0  0  0
    7.5672    9.5567   39.0363 O   0  0  0  0  0  0  0  0  0  0  0  0
    4.0952   10.6202   38.3952 C   0  0  0  0  0  0  0  0  0  0  0  0
    2.9353   10.9671   39.0881 C   0  0  0  0  0  0  0  0  0  0  0  0
  1  2  1  0
  2  3  1  0
  3  4  1  0
  4  5  2  0
  4  6  2  0
  4  7  1  0
  7  8  1  0
  7  9  1  0
  9 10  1  0
 10 11  2  0
 11 12  1  0
 12 13  2  0
 13 14  1  0
 14 15  1  0
 14 16  1  0
 13 17  1  0
 17 18  2  0
 18 10  1  0
M  CHG  1  14  -3
M  END
>  <inchikey>  (544) 
IFCXFSOKFSUXNE-UHFFFAOYSA-N

>  <tags>  (544) 
fragmenstein_placed,CpKRS_FrAncestor_bulkdock_iter2

>  <ref_pdb>  (544) 
x0602b

>  <energy_score>  (544) 
-134.767609

>  <distance_score>  (544) 
0.449525

>  <HIPPO Pose ID>  (544) 
55502

>  <ref_mols>  (544) 
x0487b

>  <smiles>  (544) 
CCCS(=O)(=O)N(C)Cc1ccc([S-3](C)O)cc1

>  <HIPPO Compound ID>  (544) 
450737

>  <alias>  (544) 
IFCXFSOKFSUXNE-UHFFFAOYSA-N-P31

>  <subsites>  (544) 


>  <placement_batch>  (544) 
CpKRS_FrAncestor_bulkdock_iter2

>  <name>  (544) 
IFCXFSOKFSUXNE-UHFFFAOYSA-N-P31

$$$$
VMYNECYFQHABMF-UHFFFAOYSA-N-P33
     RDKit          3D

 16 17  0  0  0  0  0  0  0  0999 V2000
    5.5437   -8.9004   23.7935 C   0  0  0  0  0  0  0  0  0  0  0  0
    4.1856   -9.4699   24.1457 C   0  0  1  0  0  0  0  0  0  0  0  0
    3.2658   -8.4745   24.0510 F   0  0  0  0  0  0  0  0  0  0  0  0
    3.7556  -10.6475   23.2735 C   0  0  0  0  0  0  0  0  0  0  0  0
    4.7092  -11.8407   23.4720 C   0  0  0  0  0  0  0  0  0  0  0  0
    3.9621  -13.1630   23.4668 C   0  0  0  0  0  0  0  0  0  0  0  0
    2.9369  -13.1729   24.5154 N   0  0  0  0  0  0  0  0  0  0  0  0
    3.1895  -13.9612   25.6347 C   0  0  0  0  0  0  0  0  0  0  0  0
    2.1888  -14.1966   26.5949 C   0  0  0  0  0  0  0  0  0  0  0  0
    2.3449  -14.9353   27.7152 N   0  0  0  0  0  0  0  0  0  0  0  0
    3.5696  -15.4816   27.8146 C   0  0  0  0  0  0  0  0  0  0  0  0
    3.9543  -16.4110   29.3775 Br  0  0  0  0  0  0  0  0  0  0  0  0
    4.5735  -15.2942   26.8817 C   0  0  0  0  0  0  0  0  0  0  0  0
    4.4097  -14.5175   25.7953 N   0  0  0  0  0  0  0  0  0  0  0  0
    2.1689  -11.9535   24.7551 C   0  0  0  0  0  0  0  0  0  0  0  0
    2.2907  -11.0257   23.5619 C   0  0  0  0  0  0  0  0  0  0  0  0
  2  1  1  6
  2  3  1  0
  2  4  1  0
  4  5  1  0
  5  6  1  0
  6  7  1  0
  7  8  1  0
  8  9  2  0
  9 10  1  0
 10 11  2  0
 11 12  1  0
 11 13  1  0
 13 14  2  0
  7 15  1  0
 15 16  1  0
 16  4  1  0
 14  8  1  0
M  END
>  <inchikey>  (545) 
VMYNECYFQHABMF-UHFFFAOYSA-N

>  <tags>  (545) 
fragmenstein_placed,CpKRS_FrAncestor_bulkdock_iter2

>  <ref_pdb>  (545) 
x0602b

>  <energy_score>  (545) 
-25.646749

>  <distance_score>  (545) 
0.78384

>  <HIPPO Pose ID>  (545) 
55533

>  <ref_mols>  (545) 
x0489a

>  <smiles>  (545) 
CC(F)C1CCN(c2cnc(Br)cn2)CC1

>  <HIPPO Compound ID>  (545) 
133925

>  <alias>  (545) 
VMYNECYFQHABMF-UHFFFAOYSA-N-P33

>  <subsites>  (545) 


>  <placement_batch>  (545) 
CpKRS_FrAncestor_bulkdock_iter2

>  <name>  (545) 
VMYNECYFQHABMF-UHFFFAOYSA-N-P33

$$$$
AZBKMSCDEPIMFB-UHFFFAOYSA-N-P33
     RDKit          3D

 16 17  0  0  0  0  0  0  0  0999 V2000
    5.4755   -8.9336   23.5290 C   0  0  0  0  0  0  0  0  0  0  0  0
    4.2186   -9.4220   24.2179 C   0  0  1  0  0  0  0  0  0  0  0  0
    3.3942   -8.3584   24.4063 F   0  0  0  0  0  0  0  0  0  0  0  0
    3.4886  -10.5195   23.4457 C   0  0  0  0  0  0  0  0  0  0  0  0
    2.0281  -10.6889   23.9134 C   0  0  0  0  0  0  0  0  0  0  0  0
    1.9009  -11.6754   25.0639 C   0  0  0  0  0  0  0  0  0  0  0  0
    2.3920  -12.9936   24.6556 N   0  0  0  0  0  0  0  0  0  0  0  0
    2.7608  -13.7937   25.7433 C   0  0  0  0  0  0  0  0  0  0  0  0
    1.8686  -14.1300   26.7742 C   0  0  0  0  0  0  0  0  0  0  0  0
    2.1637  -14.9428   27.8308 N   0  0  0  0  0  0  0  0  0  0  0  0
    3.4258  -15.4264   27.7981 C   0  0  0  0  0  0  0  0  0  0  0  0
    4.3206  -15.0689   26.8047 C   0  0  0  0  0  0  0  0  0  0  0  0
    6.1048  -15.5806   26.8310 Br  0  0  0  0  0  0  0  0  0  0  0  0
    4.0131  -14.2525   25.7912 N   0  0  0  0  0  0  0  0  0  0  0  0
    3.3412  -13.0322   23.5236 C   0  0  0  0  0  0  0  0  0  0  0  0
    4.2789  -11.8372   23.5314 C   0  0  0  0  0  0  0  0  0  0  0  0
  2  1  1  6
  2  3  1  0
  2  4  1  0
  4  5  1  0
  5  6  1  0
  6  7  1  0
  7  8  1  0
  8  9  2  0
  9 10  1  0
 10 11  2  0
 11 12  1  0
 12 13  1  0
 12 14  2  0
  7 15  1  0
 15 16  1  0
 16  4  1  0
 14  8  1  0
M  END
>  <inchikey>  (546) 
AZBKMSCDEPIMFB-UHFFFAOYSA-N

>  <tags>  (546) 
fragmenstein_placed,CpKRS_FrAncestor_bulkdock_iter2

>  <ref_pdb>  (546) 
x0602b

>  <energy_score>  (546) 
-19.505891

>  <distance_score>  (546) 
0.895234

>  <HIPPO Pose ID>  (546) 
55534

>  <ref_mols>  (546) 
x0489a

>  <smiles>  (546) 
CC(F)C1CCN(c2cncc(Br)n2)CC1

>  <HIPPO Compound ID>  (546) 
133923

>  <alias>  (546) 
AZBKMSCDEPIMFB-UHFFFAOYSA-N-P33

>  <subsites>  (546) 


>  <placement_batch>  (546) 
CpKRS_FrAncestor_bulkdock_iter2

>  <name>  (546) 
AZBKMSCDEPIMFB-UHFFFAOYSA-N-P33

$$$$
YTMDQKMDFOEVFB-UHFFFAOYSA-N-P33
     RDKit          3D

 16 17  0  0  0  0  0  0  0  0999 V2000
    5.4790   -8.9809   23.6520 C   0  0  0  0  0  0  0  0  0  0  0  0
    4.1370   -9.4429   24.1799 C   0  0  1  0  0  0  0  0  0  0  0  0
    3.2732   -8.3962   24.1359 F   0  0  0  0  0  0  0  0  0  0  0  0
    3.5427  -10.6273   23.4230 C   0  0  0  0  0  0  0  0  0  0  0  0
    4.4243  -11.8758   23.5949 C   0  0  0  0  0  0  0  0  0  0  0  0
    3.5762  -13.1348   23.5759 C   0  0  0  0  0  0  0  0  0  0  0  0
    2.5960  -13.1304   24.6788 N   0  0  0  0  0  0  0  0  0  0  0  0
    2.9487  -13.9149   25.7817 C   0  0  0  0  0  0  0  0  0  0  0  0
    2.0305  -14.2472   26.7948 C   0  0  0  0  0  0  0  0  0  0  0  0
    2.2975  -15.0543   27.8641 N   0  0  0  0  0  0  0  0  0  0  0  0
    3.5580  -15.5437   27.8602 C   0  0  0  0  0  0  0  0  0  0  0  0
    4.4722  -15.1952   26.8826 C   0  0  0  0  0  0  0  0  0  0  0  0
    6.0981  -15.6577   26.9020 Cl  0  0  0  0  0  0  0  0  0  0  0  0
    4.2021  -14.3790   25.8584 N   0  0  0  0  0  0  0  0  0  0  0  0
    1.9826  -11.8472   25.0247 C   0  0  0  0  0  0  0  0  0  0  0  0
    2.0802  -10.8870   23.8470 C   0  0  0  0  0  0  0  0  0  0  0  0
  2  1  1  6
  2  3  1  0
  2  4  1  0
  4  5  1  0
  5  6  1  0
  6  7  1  0
  7  8  1  0
  8  9  2  0
  9 10  1  0
 10 11  2  0
 11 12  1  0
 12 13  1  0
 12 14  2  0
  7 15  1  0
 15 16  1  0
 16  4  1  0
 14  8  1  0
M  END
>  <inchikey>  (547) 
YTMDQKMDFOEVFB-UHFFFAOYSA-N

>  <tags>  (547) 
fragmenstein_placed,CpKRS_FrAncestor_bulkdock_iter2

>  <ref_pdb>  (547) 
x0602b

>  <energy_score>  (547) 
-20.212209

>  <distance_score>  (547) 
0.753836

>  <HIPPO Pose ID>  (547) 
55535

>  <ref_mols>  (547) 
x0489a

>  <smiles>  (547) 
CC(F)C1CCN(c2cncc(Cl)n2)CC1

>  <HIPPO Compound ID>  (547) 
133918

>  <alias>  (547) 
YTMDQKMDFOEVFB-UHFFFAOYSA-N-P33

>  <subsites>  (547) 


>  <placement_batch>  (547) 
CpKRS_FrAncestor_bulkdock_iter2

>  <name>  (547) 
YTMDQKMDFOEVFB-UHFFFAOYSA-N-P33

$$$$
PSAWMEISSNHPOR-UHFFFAOYSA-N-P33
     RDKit          3D

 16 17  0  0  0  0  0  0  0  0999 V2000
    5.4364   -8.9311   23.8144 C   0  0  0  0  0  0  0  0  0  0  0  0
    4.0813   -9.5356   24.1248 C   0  0  1  0  0  0  0  0  0  0  0  0
    3.1340   -8.5799   23.9361 F   0  0  0  0  0  0  0  0  0  0  0  0
    3.7344  -10.7634   23.2838 C   0  0  0  0  0  0  0  0  0  0  0  0
    4.7475  -11.8949   23.5322 C   0  0  0  0  0  0  0  0  0  0  0  0
    4.0742  -13.2547   23.5944 C   0  0  0  0  0  0  0  0  0  0  0  0
    3.0581  -13.2600   24.6492 N   0  0  0  0  0  0  0  0  0  0  0  0
    3.2885  -14.0498   25.7669 C   0  0  0  0  0  0  0  0  0  0  0  0
    2.2955  -14.2626   26.7428 C   0  0  0  0  0  0  0  0  0  0  0  0
    2.4416  -15.0165   27.8609 N   0  0  0  0  0  0  0  0  0  0  0  0
    3.6525  -15.5937   27.9402 C   0  0  0  0  0  0  0  0  0  0  0  0
    3.9301  -16.4418   29.3808 Cl  0  0  0  0  0  0  0  0  0  0  0  0
    4.6516  -15.4273   27.0023 C   0  0  0  0  0  0  0  0  0  0  0  0
    4.4944  -14.6431   25.9179 N   0  0  0  0  0  0  0  0  0  0  0  0
    2.1842  -12.1002   24.7881 C   0  0  0  0  0  0  0  0  0  0  0  0
    2.2869  -11.2165   23.5551 C   0  0  0  0  0  0  0  0  0  0  0  0
  2  1  1  6
  2  3  1  0
  2  4  1  0
  4  5  1  0
  5  6  1  0
  6  7  1  0
  7  8  1  0
  8  9  2  0
  9 10  1  0
 10 11  2  0
 11 12  1  0
 11 13  1  0
 13 14  2  0
  7 15  1  0
 15 16  1  0
 16  4  1  0
 14  8  1  0
M  END
>  <inchikey>  (548) 
PSAWMEISSNHPOR-UHFFFAOYSA-N

>  <tags>  (548) 
fragmenstein_placed,CpKRS_FrAncestor_bulkdock_iter2

>  <ref_pdb>  (548) 
x0602b

>  <energy_score>  (548) 
-27.056694

>  <distance_score>  (548) 
0.592036

>  <HIPPO Pose ID>  (548) 
55536

>  <ref_mols>  (548) 
x0489a

>  <smiles>  (548) 
CC(F)C1CCN(c2cnc(Cl)cn2)CC1

>  <HIPPO Compound ID>  (548) 
133926

>  <alias>  (548) 
PSAWMEISSNHPOR-UHFFFAOYSA-N-P33

>  <subsites>  (548) 


>  <placement_batch>  (548) 
CpKRS_FrAncestor_bulkdock_iter2

>  <name>  (548) 
PSAWMEISSNHPOR-UHFFFAOYSA-N-P33

$$$$
LPDYEHOQXSVOEI-UHFFFAOYSA-N-P33
     RDKit          3D

 15 16  0  0  0  0  0  0  0  0999 V2000
    5.3854   -9.0104   23.5973 C   0  0  0  0  0  0  0  0  0  0  0  0
    3.9332   -9.4333   23.7377 C   0  0  2  0  0  0  0  0  0  0  0  0
    3.5721   -9.2449   25.0336 F   0  0  0  0  0  0  0  0  0  0  0  0
    3.6443  -10.8813   23.3171 C   0  0  0  0  0  0  0  0  0  0  0  0
    2.2237  -11.3197   23.7282 C   0  0  0  0  0  0  0  0  0  0  0  0
    2.2119  -12.1404   25.0199 C   0  0  0  0  0  0  0  0  0  0  0  0
    3.0615  -13.3246   24.8832 N   0  0  0  0  0  0  0  0  0  0  0  0
    3.2832  -14.1305   26.0005 C   0  0  0  0  0  0  0  0  0  0  0  0
    2.3045  -14.3482   26.9864 C   0  0  0  0  0  0  0  0  0  0  0  0
    2.4393  -15.1652   28.0739 N   0  0  0  0  0  0  0  0  0  0  0  0
    3.6291  -15.7947   28.1266 C   0  0  0  0  0  0  0  0  0  0  0  0
    4.6154  -15.5975   27.1806 C   0  0  0  0  0  0  0  0  0  0  0  0
    4.4687  -14.7665   26.1307 N   0  0  0  0  0  0  0  0  0  0  0  0
    4.1303  -13.2843   23.8807 C   0  0  0  0  0  0  0  0  0  0  0  0
    4.7032  -11.8788   23.8013 C   0  0  0  0  0  0  0  0  0  0  0  0
  2  1  1  1
  2  3  1  0
  2  4  1  0
  4  5  1  0
  5  6  1  0
  6  7  1  0
  7  8  1  0
  8  9  2  0
  9 10  1  0
 10 11  2  0
 11 12  1  0
 12 13  2  0
  7 14  1  0
 14 15  1  0
 15  4  1  0
 13  8  1  0
M  END
>  <inchikey>  (549) 
LPDYEHOQXSVOEI-UHFFFAOYSA-N

>  <tags>  (549) 
fragmenstein_placed,CpKRS_FrAncestor_bulkdock_iter2

>  <ref_pdb>  (549) 
x0602b

>  <energy_score>  (549) 
-24.146842

>  <distance_score>  (549) 
0.720442

>  <HIPPO Pose ID>  (549) 
55537

>  <ref_mols>  (549) 
x0489a

>  <smiles>  (549) 
CC(F)C1CCN(c2cnccn2)CC1

>  <HIPPO Compound ID>  (549) 
311076

>  <alias>  (549) 
LPDYEHOQXSVOEI-UHFFFAOYSA-N-P33

>  <subsites>  (549) 


>  <placement_batch>  (549) 
CpKRS_FrAncestor_bulkdock_iter2

>  <name>  (549) 
LPDYEHOQXSVOEI-UHFFFAOYSA-N-P33

$$$$
SEOMMBRZYSVNPE-UHFFFAOYSA-N-P33
     RDKit          3D

 16 17  0  0  0  0  0  0  0  0999 V2000
    5.2030   -8.9061   23.9828 C   0  0  0  0  0  0  0  0  0  0  0  0
    3.9374   -9.7376   24.1072 C   0  0  1  0  0  0  0  0  0  0  0  0
    2.8800   -8.9046   23.8971 F   0  0  0  0  0  0  0  0  0  0  0  0
    3.8509  -10.9086   23.1221 C   0  0  0  0  0  0  0  0  0  0  0  0
    2.4835  -11.5904   23.2049 C   0  0  0  0  0  0  0  0  0  0  0  0
    2.2756  -12.3488   24.5097 C   0  0  0  0  0  0  0  0  0  0  0  0
    3.4652  -13.0828   24.9170 N   0  0  0  0  0  0  0  0  0  0  0  0
    3.4552  -14.0209   25.9497 C   0  0  0  0  0  0  0  0  0  0  0  0
    4.5980  -14.7491   26.0740 N   0  0  0  0  0  0  0  0  0  0  0  0
    4.6711  -15.6879   27.0346 C   0  0  0  0  0  0  0  0  0  0  0  0
    3.6527  -15.9157   27.9262 C   0  0  0  0  0  0  0  0  0  0  0  0
    2.5155  -15.2036   27.9031 N   0  0  0  0  0  0  0  0  0  0  0  0
    2.4325  -14.2652   26.9059 C   0  0  0  0  0  0  0  0  0  0  0  0
    0.7738  -13.3199   27.0009 Br  0  0  0  0  0  0  0  0  0  0  0  0
    4.4686  -13.2894   23.8668 C   0  0  0  0  0  0  0  0  0  0  0  0
    4.9642  -11.9341   23.3659 C   0  0  0  0  0  0  0  0  0  0  0  0
  2  1  1  6
  2  3  1  0
  2  4  1  0
  4  5  1  0
  5  6  1  0
  6  7  1  0
  7  8  1  0
  8  9  2  0
  9 10  1  0
 10 11  2  0
 11 12  1  0
 12 13  2  0
 13 14  1  0
  7 15  1  0
 15 16  1  0
 16  4  1  0
 13  8  1  0
M  END
>  <inchikey>  (550) 
SEOMMBRZYSVNPE-UHFFFAOYSA-N

>  <tags>  (550) 
fragmenstein_placed,CpKRS_FrAncestor_bulkdock_iter2

>  <ref_pdb>  (550) 
x0602b

>  <energy_score>  (550) 
-23.433399

>  <distance_score>  (550) 
0.788118

>  <HIPPO Pose ID>  (550) 
55538

>  <ref_mols>  (550) 
x0489a

>  <smiles>  (550) 
CC(F)C1CCN(c2nccnc2Br)CC1

>  <HIPPO Compound ID>  (550) 
133927

>  <alias>  (550) 
SEOMMBRZYSVNPE-UHFFFAOYSA-N-P33

>  <subsites>  (550) 


>  <placement_batch>  (550) 
CpKRS_FrAncestor_bulkdock_iter2

>  <name>  (550) 
SEOMMBRZYSVNPE-UHFFFAOYSA-N-P33

$$$$
XRBPGPBIATZOIO-UHFFFAOYSA-N-P33
     RDKit          3D

 16 17  0  0  0  0  0  0  0  0999 V2000
    5.1752   -8.9134   23.9611 C   0  0  0  0  0  0  0  0  0  0  0  0
    3.9008   -9.7261   24.1173 C   0  0  1  0  0  0  0  0  0  0  0  0
    2.8511   -8.8847   23.9018 F   0  0  0  0  0  0  0  0  0  0  0  0
    3.7859  -10.9164   23.1596 C   0  0  0  0  0  0  0  0  0  0  0  0
    2.4129  -11.5878   23.2879 C   0  0  0  0  0  0  0  0  0  0  0  0
    2.2369  -12.3447   24.6018 C   0  0  0  0  0  0  0  0  0  0  0  0
    3.4358  -13.0907   24.9612 N   0  0  0  0  0  0  0  0  0  0  0  0
    3.4427  -14.0346   25.9877 C   0  0  0  0  0  0  0  0  0  0  0  0
    4.5771  -14.7767   26.0915 N   0  0  0  0  0  0  0  0  0  0  0  0
    4.6472  -15.7153   27.0530 C   0  0  0  0  0  0  0  0  0  0  0  0
    3.6356  -15.9281   27.9599 C   0  0  0  0  0  0  0  0  0  0  0  0
    2.5048  -15.2029   27.9539 N   0  0  0  0  0  0  0  0  0  0  0  0
    2.4339  -14.2692   26.9575 C   0  0  0  0  0  0  0  0  0  0  0  0
    0.9385  -13.4101   27.0905 Cl  0  0  0  0  0  0  0  0  0  0  0  0
    4.4148  -13.2940   23.8889 C   0  0  0  0  0  0  0  0  0  0  0  0
    4.9065  -11.9379   23.3921 C   0  0  0  0  0  0  0  0  0  0  0  0
  2  1  1  6
  2  3  1  0
  2  4  1  0
  4  5  1  0
  5  6  1  0
  6  7  1  0
  7  8  1  0
  8  9  2  0
  9 10  1  0
 10 11  2  0
 11 12  1  0
 12 13  2  0
 13 14  1  0
  7 15  1  0
 15 16  1  0
 16  4  1  0
 13  8  1  0
M  END
>  <inchikey>  (551) 
XRBPGPBIATZOIO-UHFFFAOYSA-N

>  <tags>  (551) 
fragmenstein_placed,CpKRS_FrAncestor_bulkdock_iter2

>  <ref_pdb>  (551) 
x0602b

>  <energy_score>  (551) 
-28.51194

>  <distance_score>  (551) 
0.561303

>  <HIPPO Pose ID>  (551) 
55539

>  <ref_mols>  (551) 
x0489a

>  <smiles>  (551) 
CC(F)C1CCN(c2nccnc2Cl)CC1

>  <HIPPO Compound ID>  (551) 
133919

>  <alias>  (551) 
XRBPGPBIATZOIO-UHFFFAOYSA-N-P33

>  <subsites>  (551) 


>  <placement_batch>  (551) 
CpKRS_FrAncestor_bulkdock_iter2

>  <name>  (551) 
XRBPGPBIATZOIO-UHFFFAOYSA-N-P33

$$$$
IESWSWZCSJNVPR-UHFFFAOYSA-N-P33
     RDKit          3D

 16 17  0  0  0  0  0  0  0  0999 V2000
    5.1225   -8.9331   23.9333 C   0  0  0  0  0  0  0  0  0  0  0  0
    3.8338   -9.7130   24.1361 C   0  0  1  0  0  0  0  0  0  0  0  0
    2.7990   -8.8603   23.8951 F   0  0  0  0  0  0  0  0  0  0  0  0
    3.6808  -10.9399   23.2329 C   0  0  0  0  0  0  0  0  0  0  0  0
    2.3057  -11.6009   23.4411 C   0  0  0  0  0  0  0  0  0  0  0  0
    2.1965  -12.3772   24.7560 C   0  0  0  0  0  0  0  0  0  0  0  0
    3.4120  -13.1373   25.0153 N   0  0  0  0  0  0  0  0  0  0  0  0
    3.4564  -14.0855   26.0334 C   0  0  0  0  0  0  0  0  0  0  0  0
    4.6005  -14.8050   26.1449 N   0  0  0  0  0  0  0  0  0  0  0  0
    4.6647  -15.7230   27.1241 C   0  0  0  0  0  0  0  0  0  0  0  0
    3.6416  -15.9318   28.0256 C   0  0  0  0  0  0  0  0  0  0  0  0
    2.4950  -15.2271   28.0002 N   0  0  0  0  0  0  0  0  0  0  0  0
    2.4308  -14.3145   26.9865 C   0  0  0  0  0  0  0  0  0  0  0  0
    1.2908  -13.6004   26.9444 F   0  0  0  0  0  0  0  0  0  0  0  0
    4.3469  -13.3150   23.9071 C   0  0  0  0  0  0  0  0  0  0  0  0
    4.8227  -11.9450   23.4442 C   0  0  0  0  0  0  0  0  0  0  0  0
  2  1  1  6
  2  3  1  0
  2  4  1  0
  4  5  1  0
  5  6  1  0
  6  7  1  0
  7  8  1  0
  8  9  2  0
  9 10  1  0
 10 11  2  0
 11 12  1  0
 12 13  2  0
 13 14  1  0
  7 15  1  0
 15 16  1  0
 16  4  1  0
 13  8  1  0
M  END
>  <inchikey>  (552) 
IESWSWZCSJNVPR-UHFFFAOYSA-N

>  <tags>  (552) 
fragmenstein_placed,CpKRS_FrAncestor_bulkdock_iter2

>  <ref_pdb>  (552) 
x0602b

>  <energy_score>  (552) 
-26.387689

>  <distance_score>  (552) 
0.544356

>  <HIPPO Pose ID>  (552) 
55540

>  <ref_mols>  (552) 
x0489a

>  <smiles>  (552) 
CC(F)C1CCN(c2nccnc2F)CC1

>  <HIPPO Compound ID>  (552) 
133924

>  <alias>  (552) 
IESWSWZCSJNVPR-UHFFFAOYSA-N-P33

>  <subsites>  (552) 


>  <placement_batch>  (552) 
CpKRS_FrAncestor_bulkdock_iter2

>  <name>  (552) 
IESWSWZCSJNVPR-UHFFFAOYSA-N-P33

$$$$
ABEVPBNULBTYKC-UHFFFAOYSA-N-P49
     RDKit          3D

 14 14  0  0  0  0  0  0  0  0999 V2000
    5.8065   -8.6390   23.0614 C   0  0  0  0  0  0  0  0  0  0  0  0
    5.2169   -9.7828   23.8636 C   0  0  1  0  0  0  0  0  0  0  0  0
    4.5234   -9.2247   24.9022 F   0  0  0  0  0  0  0  0  0  0  0  0
    4.2492  -10.6368   23.0400 C   0  0  1  0  0  0  0  0  0  0  0  0
    4.9300  -11.3775   21.9029 C   0  0  0  0  0  0  0  0  0  0  0  0
    3.5301  -11.5699   23.8731 N   0  0  0  0  0  0  0  0  0  0  0  0
    4.0380  -12.7522   24.7212 C   0  0  0  0  0  0  0  0  0  0  0  0
    5.1063  -13.2061   24.8201 O   0  0  0  0  0  0  0  0  0  0  0  0
    2.9118  -13.3423   25.4460 C   0  0  0  0  0  0  0  0  0  0  0  0
    2.8934  -14.4243   26.3122 C   0  0  0  0  0  0  0  0  0  0  0  0
    1.6390  -14.7938   26.7941 N   0  0  0  0  0  0  0  0  0  0  0  0
    0.7500  -13.9874   26.2712 C   0  0  0  0  0  0  0  0  0  0  0  0
   -1.1396  -14.2123   26.4621 Br  0  0  0  0  0  0  0  0  0  0  0  0
    1.3213  -12.7126   25.3190 S   0  0  0  0  0  0  0  0  0  0  0  0
  2  1  1  6
  2  3  1  0
  2  4  1  0
  4  5  1  6
  4  6  1  0
  6  7  1  0
  7  8  2  0
  7  9  1  0
  9 10  2  0
 10 11  1  0
 11 12  2  0
 12 13  1  0
 12 14  1  0
 14  9  1  0
M  END
>  <inchikey>  (553) 
ABEVPBNULBTYKC-UHFFFAOYSA-N

>  <tags>  (553) 
fragmenstein_placed,CpKRS_FrAncestor_bulkdock_iter2

>  <ref_pdb>  (553) 
x0602b

>  <energy_score>  (553) 
-22.06606

>  <distance_score>  (553) 
0.810574

>  <HIPPO Pose ID>  (553) 
55542

>  <ref_mols>  (553) 
x0504b

>  <smiles>  (553) 
CC(F)C(C)NC(=O)c1cnc(Br)s1

>  <HIPPO Compound ID>  (553) 
450740

>  <alias>  (553) 
ABEVPBNULBTYKC-UHFFFAOYSA-N-P49

>  <subsites>  (553) 


>  <placement_batch>  (553) 
CpKRS_FrAncestor_bulkdock_iter2

>  <name>  (553) 
ABEVPBNULBTYKC-UHFFFAOYSA-N-P49

$$$$
RLLAQVJSOQAJNZ-UHFFFAOYSA-N-P49
     RDKit          3D

 14 14  0  0  0  0  0  0  0  0999 V2000
    5.7789   -8.6301   23.0348 C   0  0  0  0  0  0  0  0  0  0  0  0
    5.2168   -9.7785   23.8496 C   0  0  1  0  0  0  0  0  0  0  0  0
    4.5261   -9.2271   24.8939 F   0  0  0  0  0  0  0  0  0  0  0  0
    4.2516  -10.6545   23.0452 C   0  0  1  0  0  0  0  0  0  0  0  0
    4.9211  -11.3643   21.8822 C   0  0  0  0  0  0  0  0  0  0  0  0
    3.5920  -11.6170   23.8945 N   0  0  0  0  0  0  0  0  0  0  0  0
    4.1620  -12.8065   24.6893 C   0  0  0  0  0  0  0  0  0  0  0  0
    5.2407  -13.2435   24.7232 O   0  0  0  0  0  0  0  0  0  0  0  0
    3.0969  -13.4183   25.4797 C   0  0  0  0  0  0  0  0  0  0  0  0
    3.1685  -14.4963   26.3494 C   0  0  0  0  0  0  0  0  0  0  0  0
    1.9758  -14.8576   26.9655 N   0  0  0  0  0  0  0  0  0  0  0  0
    1.0506  -14.0410   26.5393 C   0  0  0  0  0  0  0  0  0  0  0  0
   -0.5982  -14.1550   26.9628 Cl  0  0  0  0  0  0  0  0  0  0  0  0
    1.4879  -12.8208   25.4659 S   0  0  0  0  0  0  0  0  0  0  0  0
  2  1  1  6
  2  3  1  0
  2  4  1  0
  4  5  1  6
  4  6  1  0
  6  7  1  0
  7  8  2  0
  7  9  1  0
  9 10  2  0
 10 11  1  0
 11 12  2  0
 12 13  1  0
 12 14  1  0
 14  9  1  0
M  END
>  <inchikey>  (554) 
RLLAQVJSOQAJNZ-UHFFFAOYSA-N

>  <tags>  (554) 
fragmenstein_placed,CpKRS_FrAncestor_bulkdock_iter2

>  <ref_pdb>  (554) 
x0602b

>  <energy_score>  (554) 
-37.050929

>  <distance_score>  (554) 
0.687119

>  <HIPPO Pose ID>  (554) 
55545

>  <ref_mols>  (554) 
x0504b

>  <smiles>  (554) 
CC(F)C(C)NC(=O)c1cnc(Cl)s1

>  <HIPPO Compound ID>  (554) 
450741

>  <alias>  (554) 
RLLAQVJSOQAJNZ-UHFFFAOYSA-N-P49

>  <subsites>  (554) 


>  <placement_batch>  (554) 
CpKRS_FrAncestor_bulkdock_iter2

>  <name>  (554) 
RLLAQVJSOQAJNZ-UHFFFAOYSA-N-P49

$$$$
GIQUFZIORJCVOF-UHFFFAOYSA-N-P48
     RDKit          3D

 13 13  0  0  0  0  0  0  0  0999 V2000
    4.3005   -9.2649   24.2390 C   0  0  0  0  0  0  0  0  0  0  0  0
    4.7677  -10.3484   23.2894 C   0  0  2  0  0  0  0  0  0  0  0  0
    5.0569   -9.7252   22.1050 F   0  0  0  0  0  0  0  0  0  0  0  0
    3.6950  -11.4116   23.0235 C   0  0  1  0  0  0  0  0  0  0  0  0
    4.2146  -12.3943   21.9875 C   0  0  0  0  0  0  0  0  0  0  0  0
    3.2566  -12.1538   24.1861 N   0  0  0  0  0  0  0  0  0  0  0  0
    4.0225  -13.1324   25.0955 C   0  0  0  0  0  0  0  0  0  0  0  0
    5.1469  -13.4366   25.0990 O   0  0  0  0  0  0  0  0  0  0  0  0
    3.0996  -13.7616   26.0457 C   0  0  0  0  0  0  0  0  0  0  0  0
    3.3881  -14.7711   26.9469 C   0  0  0  0  0  0  0  0  0  0  0  0
    2.3495  -15.1689   27.7711 N   0  0  0  0  0  0  0  0  0  0  0  0
    1.2774  -14.4694   27.4794 C   0  0  0  0  0  0  0  0  0  0  0  0
    1.4415  -13.3370   26.2060 S   0  0  0  0  0  0  0  0  0  0  0  0
  2  1  1  1
  2  3  1  0
  2  4  1  0
  4  5  1  6
  4  6  1  0
  6  7  1  0
  7  8  2  0
  7  9  1  0
  9 10  2  0
 10 11  1  0
 11 12  2  0
 12 13  1  0
 13  9  1  0
M  END
>  <inchikey>  (555) 
GIQUFZIORJCVOF-UHFFFAOYSA-N

>  <tags>  (555) 
fragmenstein_placed,CpKRS_FrAncestor_bulkdock_iter2

>  <ref_pdb>  (555) 
x0602b

>  <energy_score>  (555) 
-28.377208

>  <distance_score>  (555) 
0.50035

>  <HIPPO Pose ID>  (555) 
55547

>  <ref_mols>  (555) 
x0504a

>  <smiles>  (555) 
CC(F)C(C)NC(=O)c1cncs1

>  <HIPPO Compound ID>  (555) 
450742

>  <alias>  (555) 
GIQUFZIORJCVOF-UHFFFAOYSA-N-P48

>  <subsites>  (555) 


>  <placement_batch>  (555) 
CpKRS_FrAncestor_bulkdock_iter2

>  <name>  (555) 
GIQUFZIORJCVOF-UHFFFAOYSA-N-P48

$$$$
QBVHOFQRJTZLDS-UHFFFAOYSA-N-P49
     RDKit          3D

 14 14  0  0  0  0  0  0  0  0999 V2000
    5.3586   -8.5729   23.0686 C   0  0  0  0  0  0  0  0  0  0  0  0
    4.4450   -9.5540   23.7818 C   0  0  2  0  0  0  0  0  0  0  0  0
    4.5150   -9.2727   25.1179 F   0  0  0  0  0  0  0  0  0  0  0  0
    4.8465  -11.0161   23.5907 C   0  0  2  0  0  0  0  0  0  0  0  0
    4.8521  -11.4508   22.1319 C   0  0  0  0  0  0  0  0  0  0  0  0
    4.0114  -11.9125   24.3624 N   0  0  0  0  0  0  0  0  0  0  0  0
    4.1730  -13.4045   24.6721 C   0  0  0  0  0  0  0  0  0  0  0  0
    4.9609  -14.1715   24.2947 O   0  0  0  0  0  0  0  0  0  0  0  0
    3.1162  -13.7903   25.6324 C   0  0  0  0  0  0  0  0  0  0  0  0
    2.0136  -12.9458   25.8697 N   0  0  0  0  0  0  0  0  0  0  0  0
    1.2440  -13.4830   26.7897 C   0  0  0  0  0  0  0  0  0  0  0  0
    1.7382  -14.9935   27.4173 S   0  0  0  0  0  0  0  0  0  0  0  0
    3.0950  -14.9417   26.3926 C   0  0  0  0  0  0  0  0  0  0  0  0
    4.3952  -16.3265   26.3863 Br  0  0  0  0  0  0  0  0  0  0  0  0
  2  1  1  6
  2  3  1  0
  2  4  1  0
  4  5  1  6
  4  6  1  0
  6  7  1  0
  7  8  2  0
  7  9  1  0
  9 10  1  0
 10 11  2  0
 11 12  1  0
 12 13  1  0
 13 14  1  0
 13  9  2  0
M  END
>  <inchikey>  (556) 
QBVHOFQRJTZLDS-UHFFFAOYSA-N

>  <tags>  (556) 
fragmenstein_placed,CpKRS_FrAncestor_bulkdock_iter2

>  <ref_pdb>  (556) 
x0602b

>  <energy_score>  (556) 
-84.183844

>  <distance_score>  (556) 
0.636218

>  <HIPPO Pose ID>  (556) 
55551

>  <ref_mols>  (556) 
x0504b

>  <smiles>  (556) 
CC(F)C(C)NC(=O)c1ncsc1Br

>  <HIPPO Compound ID>  (556) 
450743

>  <alias>  (556) 
QBVHOFQRJTZLDS-UHFFFAOYSA-N-P49

>  <subsites>  (556) 


>  <placement_batch>  (556) 
CpKRS_FrAncestor_bulkdock_iter2

>  <name>  (556) 
QBVHOFQRJTZLDS-UHFFFAOYSA-N-P49

$$$$
KISUQPGFIARWLE-UHFFFAOYSA-N-P48
     RDKit          3D

 17 17  0  0  0  0  0  0  0  0999 V2000
    4.2882   -9.2501   24.2875 C   0  0  0  0  0  0  0  0  0  0  0  0
    4.8079  -10.2788   23.3060 C   0  0  2  0  0  0  0  0  0  0  0  0
    5.1121   -9.5974   22.1579 F   0  0  0  0  0  0  0  0  0  0  0  0
    3.7679  -11.3484   22.9622 C   0  0  1  0  0  0  0  0  0  0  0  0
    4.3297  -12.2532   21.8793 C   0  0  0  0  0  0  0  0  0  0  0  0
    3.3193  -12.1700   24.0658 N   0  0  0  0  0  0  0  0  0  0  0  0
    4.0752  -13.2021   24.9111 C   0  0  0  0  0  0  0  0  0  0  0  0
    5.1574  -13.6137   24.8077 O   0  0  0  0  0  0  0  0  0  0  0  0
    3.1358  -13.7267   25.9219 C   0  0  0  0  0  0  0  0  0  0  0  0
    1.8410  -13.1884   26.0209 N   0  0  0  0  0  0  0  0  0  0  0  0
    1.1792  -13.7987   26.9772 C   0  0  0  0  0  0  0  0  0  0  0  0
    2.0176  -15.0397   27.7931 S   0  0  0  0  0  0  0  0  0  0  0  0
    3.3974  -14.7610   26.8043 C   0  0  0  0  0  0  0  0  0  0  0  0
    4.6131  -15.5931   26.9645 C   0  0  0  0  0  0  0  0  0  0  0  0
    4.6322  -16.2246   28.1708 F   0  0  0  0  0  0  0  0  0  0  0  0
    5.7748  -14.8971   26.9154 F   0  0  0  0  0  0  0  0  0  0  0  0
    4.6931  -16.5642   26.0187 F   0  0  0  0  0  0  0  0  0  0  0  0
  2  1  1  1
  2  3  1  0
  2  4  1  0
  4  5  1  6
  4  6  1  0
  6  7  1  0
  7  8  2  0
  7  9  1  0
  9 10  1  0
 10 11  2  0
 11 12  1  0
 12 13  1  0
 13 14  1  0
 14 15  1  0
 14 16  1  0
 14 17  1  0
 13  9  2  0
M  END
>  <inchikey>  (557) 
KISUQPGFIARWLE-UHFFFAOYSA-N

>  <tags>  (557) 
fragmenstein_placed,CpKRS_FrAncestor_bulkdock_iter2

>  <ref_pdb>  (557) 
x0602b

>  <energy_score>  (557) 
-61.137371

>  <distance_score>  (557) 
0.518617

>  <HIPPO Pose ID>  (557) 
55553

>  <ref_mols>  (557) 
x0504a

>  <smiles>  (557) 
CC(F)C(C)NC(=O)c1ncsc1C(F)(F)F

>  <HIPPO Compound ID>  (557) 
147670

>  <alias>  (557) 
KISUQPGFIARWLE-UHFFFAOYSA-N-P48

>  <subsites>  (557) 


>  <placement_batch>  (557) 
CpKRS_FrAncestor_bulkdock_iter2

>  <name>  (557) 
KISUQPGFIARWLE-UHFFFAOYSA-N-P48

$$$$
DMUUOWVEXVBNTN-UHFFFAOYSA-N-P49
     RDKit          3D

 14 14  0  0  0  0  0  0  0  0999 V2000
    5.3076   -8.6391   23.0457 C   0  0  0  0  0  0  0  0  0  0  0  0
    4.4153   -9.6292   23.7748 C   0  0  2  0  0  0  0  0  0  0  0  0
    4.4839   -9.3271   25.1064 F   0  0  0  0  0  0  0  0  0  0  0  0
    4.8471  -11.0861   23.6024 C   0  0  2  0  0  0  0  0  0  0  0  0
    4.8549  -11.5426   22.1505 C   0  0  0  0  0  0  0  0  0  0  0  0
    4.0396  -11.9941   24.3908 N   0  0  0  0  0  0  0  0  0  0  0  0
    4.2648  -13.4664   24.7563 C   0  0  0  0  0  0  0  0  0  0  0  0
    5.0951  -14.2081   24.4202 O   0  0  0  0  0  0  0  0  0  0  0  0
    3.2097  -13.8718   25.7044 C   0  0  0  0  0  0  0  0  0  0  0  0
    2.0729  -13.0686   25.9233 N   0  0  0  0  0  0  0  0  0  0  0  0
    1.3219  -13.6282   26.8464 C   0  0  0  0  0  0  0  0  0  0  0  0
    1.8708  -15.1176   27.4855 S   0  0  0  0  0  0  0  0  0  0  0  0
    3.2300  -15.0157   26.4722 C   0  0  0  0  0  0  0  0  0  0  0  0
    4.4089  -16.2519   26.5423 Cl  0  0  0  0  0  0  0  0  0  0  0  0
  2  1  1  6
  2  3  1  0
  2  4  1  0
  4  5  1  6
  4  6  1  0
  6  7  1  0
  7  8  2  0
  7  9  1  0
  9 10  1  0
 10 11  2  0
 11 12  1  0
 12 13  1  0
 13 14  1  0
 13  9  2  0
M  END
>  <inchikey>  (558) 
DMUUOWVEXVBNTN-UHFFFAOYSA-N

>  <tags>  (558) 
fragmenstein_placed,CpKRS_FrAncestor_bulkdock_iter2

>  <ref_pdb>  (558) 
x0602b

>  <energy_score>  (558) 
-78.983789

>  <distance_score>  (558) 
0.597333

>  <HIPPO Pose ID>  (558) 
55557

>  <ref_mols>  (558) 
x0504b

>  <smiles>  (558) 
CC(F)C(C)NC(=O)c1ncsc1Cl

>  <HIPPO Compound ID>  (558) 
450744

>  <alias>  (558) 
DMUUOWVEXVBNTN-UHFFFAOYSA-N-P49

>  <subsites>  (558) 


>  <placement_batch>  (558) 
CpKRS_FrAncestor_bulkdock_iter2

>  <name>  (558) 
DMUUOWVEXVBNTN-UHFFFAOYSA-N-P49

$$$$
YDONGXCGIRHFQV-UHFFFAOYSA-N-P49
     RDKit          3D

 15 15  0  0  0  0  0  0  0  0999 V2000
    5.7499   -8.6397   22.9617 C   0  0  0  0  0  0  0  0  0  0  0  0
    5.3416   -9.7175   23.9455 C   0  0  1  0  0  0  0  0  0  0  0  0
    4.3055   -9.2248   24.6904 F   0  0  0  0  0  0  0  0  0  0  0  0
    4.8934  -11.0326   23.2984 C   0  0  2  0  0  0  0  0  0  0  0  0
    3.9415  -10.8292   22.1345 C   0  0  0  0  0  0  0  0  0  0  0  0
    4.2134  -11.8554   24.2695 N   0  0  0  0  0  0  0  0  0  0  0  0
    4.3664  -13.3501   24.5943 C   0  0  0  0  0  0  0  0  0  0  0  0
    5.1180  -14.1374   24.1842 O   0  0  0  0  0  0  0  0  0  0  0  0
    3.3198  -13.7346   25.5333 C   0  0  0  0  0  0  0  0  0  0  0  0
    1.8229  -12.8830   25.5811 S   0  0  0  0  0  0  0  0  0  0  0  0
    1.3019  -13.9254   26.7941 C   0  0  0  0  0  0  0  0  0  0  0  0
   -0.2662  -13.6948   27.4280 Cl  0  0  0  0  0  0  0  0  0  0  0  0
    2.1017  -14.8798   27.1789 N   0  0  0  0  0  0  0  0  0  0  0  0
    3.2770  -14.7806   26.4408 C   0  0  0  0  0  0  0  0  0  0  0  0
    4.5334  -15.9052   26.7209 Cl  0  0  0  0  0  0  0  0  0  0  0  0
  2  1  1  6
  2  3  1  0
  2  4  1  0
  4  5  1  6
  4  6  1  0
  6  7  1  0
  7  8  2  0
  7  9  1  0
  9 10  1  0
 10 11  1  0
 11 12  1  0
 11 13  2  0
 13 14  1  0
 14 15  1  0
 14  9  2  0
M  END
>  <inchikey>  (559) 
YDONGXCGIRHFQV-UHFFFAOYSA-N

>  <tags>  (559) 
fragmenstein_placed,CpKRS_FrAncestor_bulkdock_iter2

>  <ref_pdb>  (559) 
x0602b

>  <energy_score>  (559) 
-68.68553

>  <distance_score>  (559) 
0.688243

>  <HIPPO Pose ID>  (559) 
55560

>  <ref_mols>  (559) 
x0504b

>  <smiles>  (559) 
CC(F)C(C)NC(=O)c1sc(Cl)nc1Cl

>  <HIPPO Compound ID>  (559) 
305215

>  <alias>  (559) 
YDONGXCGIRHFQV-UHFFFAOYSA-N-P49

>  <subsites>  (559) 


>  <placement_batch>  (559) 
CpKRS_FrAncestor_bulkdock_iter2

>  <name>  (559) 
YDONGXCGIRHFQV-UHFFFAOYSA-N-P49

$$$$
QZEZTQCFPROSOM-UHFFFAOYSA-N-P48
     RDKit          3D

 14 14  0  0  0  0  0  0  0  0999 V2000
    4.3208   -9.1813   24.2446 C   0  0  0  0  0  0  0  0  0  0  0  0
    4.7914  -10.2227   23.2511 C   0  0  2  0  0  0  0  0  0  0  0  0
    5.0939   -9.5518   22.0967 F   0  0  0  0  0  0  0  0  0  0  0  0
    3.7162  -11.2634   22.9223 C   0  0  1  0  0  0  0  0  0  0  0  0
    4.2743  -12.2375   21.8977 C   0  0  0  0  0  0  0  0  0  0  0  0
    3.2219  -12.0176   24.0502 N   0  0  0  0  0  0  0  0  0  0  0  0
    3.9517  -12.9661   25.0139 C   0  0  0  0  0  0  0  0  0  0  0  0
    5.0810  -13.2307   25.0995 O   0  0  0  0  0  0  0  0  0  0  0  0
    2.9753  -13.6167   25.9011 C   0  0  0  0  0  0  0  0  0  0  0  0
    1.3479  -13.0704   26.0640 S   0  0  0  0  0  0  0  0  0  0  0  0
    1.0582  -14.2597   27.2550 C   0  0  0  0  0  0  0  0  0  0  0  0
    2.0536  -15.0747   27.5022 N   0  0  0  0  0  0  0  0  0  0  0  0
    3.1402  -14.7188   26.7219 C   0  0  0  0  0  0  0  0  0  0  0  0
    4.7039  -15.7774   26.8185 Br  0  0  0  0  0  0  0  0  0  0  0  0
  2  1  1  1
  2  3  1  0
  2  4  1  0
  4  5  1  6
  4  6  1  0
  6  7  1  0
  7  8  2  0
  7  9  1  0
  9 10  1  0
 10 11  1  0
 11 12  2  0
 12 13  1  0
 13 14  1  0
 13  9  2  0
M  END
>  <inchikey>  (560) 
QZEZTQCFPROSOM-UHFFFAOYSA-N

>  <tags>  (560) 
fragmenstein_placed,CpKRS_FrAncestor_bulkdock_iter2

>  <ref_pdb>  (560) 
x0602b

>  <energy_score>  (560) 
-43.003408

>  <distance_score>  (560) 
0.520392

>  <HIPPO Pose ID>  (560) 
55562

>  <ref_mols>  (560) 
x0504a

>  <smiles>  (560) 
CC(F)C(C)NC(=O)c1scnc1Br

>  <HIPPO Compound ID>  (560) 
450745

>  <alias>  (560) 
QZEZTQCFPROSOM-UHFFFAOYSA-N-P48

>  <subsites>  (560) 


>  <placement_batch>  (560) 
CpKRS_FrAncestor_bulkdock_iter2

>  <name>  (560) 
QZEZTQCFPROSOM-UHFFFAOYSA-N-P48

$$$$
OSKBZAUHRUEVIM-UHFFFAOYSA-N-P49
     RDKit          3D

 17 17  0  0  0  0  0  0  0  0999 V2000
    5.5630   -8.6028   23.0245 C   0  0  0  0  0  0  0  0  0  0  0  0
    4.5651   -9.5096   23.7164 C   0  0  2  0  0  0  0  0  0  0  0  0
    4.5925   -9.2043   25.0494 F   0  0  0  0  0  0  0  0  0  0  0  0
    4.8648  -11.0051   23.5797 C   0  0  2  0  0  0  0  0  0  0  0  0
    4.8726  -11.4807   22.1356 C   0  0  0  0  0  0  0  0  0  0  0  0
    3.9151  -11.7742   24.3568 N   0  0  0  0  0  0  0  0  0  0  0  0
    3.8100  -13.2912   24.5896 C   0  0  0  0  0  0  0  0  0  0  0  0
    4.4232  -14.1689   24.1321 O   0  0  0  0  0  0  0  0  0  0  0  0
    2.7331  -13.5547   25.5558 C   0  0  0  0  0  0  0  0  0  0  0  0
    1.4242  -12.4363   25.7226 S   0  0  0  0  0  0  0  0  0  0  0  0
    0.7490  -13.3974   26.9438 C   0  0  0  0  0  0  0  0  0  0  0  0
    1.3727  -14.5123   27.2092 N   0  0  0  0  0  0  0  0  0  0  0  0
    2.5221  -14.6348   26.4129 C   0  0  0  0  0  0  0  0  0  0  0  0
    3.3200  -15.9248   26.5816 C   0  0  0  0  0  0  0  0  0  0  0  0
    2.7757  -16.6749   27.8237 C   0  0  0  0  0  0  0  0  0  0  0  0
    3.0983  -16.8451   25.3646 C   0  0  0  0  0  0  0  0  0  0  0  0
    4.8208  -15.6924   26.8073 C   0  0  0  0  0  0  0  0  0  0  0  0
  2  1  1  6
  2  3  1  0
  2  4  1  0
  4  5  1  6
  4  6  1  0
  6  7  1  0
  7  8  2  0
  7  9  1  0
  9 10  1  0
 10 11  1  0
 11 12  2  0
 12 13  1  0
 13 14  1  0
 14 15  1  0
 14 16  1  0
 14 17  1  0
 13  9  2  0
M  END
>  <inchikey>  (561) 
OSKBZAUHRUEVIM-UHFFFAOYSA-N

>  <tags>  (561) 
fragmenstein_placed,CpKRS_FrAncestor_bulkdock_iter2

>  <ref_pdb>  (561) 
x0602b

>  <energy_score>  (561) 
-67.068839

>  <distance_score>  (561) 
0.808995

>  <HIPPO Pose ID>  (561) 
55566

>  <ref_mols>  (561) 
x0504b

>  <smiles>  (561) 
CC(F)C(C)NC(=O)c1scnc1C(C)(C)C

>  <HIPPO Compound ID>  (561) 
147668

>  <alias>  (561) 
OSKBZAUHRUEVIM-UHFFFAOYSA-N-P49

>  <subsites>  (561) 


>  <placement_batch>  (561) 
CpKRS_FrAncestor_bulkdock_iter2

>  <name>  (561) 
OSKBZAUHRUEVIM-UHFFFAOYSA-N-P49

$$$$
VJSMDEVMGWXURB-UHFFFAOYSA-N-P49
     RDKit          3D

 17 17  0  0  0  0  0  0  0  0999 V2000
    5.2151   -8.6110   22.8678 C   0  0  0  0  0  0  0  0  0  0  0  0
    4.5230   -9.5466   23.8431 C   0  0  2  0  0  0  0  0  0  0  0  0
    5.4572   -9.9920   24.7232 F   0  0  0  0  0  0  0  0  0  0  0  0
    3.8038  -10.7351   23.1775 C   0  0  1  0  0  0  0  0  0  0  0  0
    4.6630  -11.4689   22.1555 C   0  0  0  0  0  0  0  0  0  0  0  0
    3.2855  -11.6537   24.1761 N   0  0  0  0  0  0  0  0  0  0  0  0
    3.8925  -12.9446   24.7600 C   0  0  0  0  0  0  0  0  0  0  0  0
    4.9360  -13.4322   24.5885 O   0  0  0  0  0  0  0  0  0  0  0  0
    2.9671  -13.5635   25.7157 C   0  0  0  0  0  0  0  0  0  0  0  0
    1.4266  -12.8967   26.0973 S   0  0  0  0  0  0  0  0  0  0  0  0
    1.2015  -14.1015   27.2789 C   0  0  0  0  0  0  0  0  0  0  0  0
    2.1351  -15.0122   27.3639 N   0  0  0  0  0  0  0  0  0  0  0  0
    3.1718  -14.7225   26.4604 C   0  0  0  0  0  0  0  0  0  0  0  0
    4.3589  -15.6405   26.3657 C   0  0  0  0  0  0  0  0  0  0  0  0
    5.5374  -15.0425   26.6740 F   0  0  0  0  0  0  0  0  0  0  0  0
    4.4869  -16.1779   25.1234 F   0  0  0  0  0  0  0  0  0  0  0  0
    4.2448  -16.6910   27.2189 F   0  0  0  0  0  0  0  0  0  0  0  0
  2  1  1  6
  2  3  1  0
  2  4  1  0
  4  5  1  6
  4  6  1  0
  6  7  1  0
  7  8  2  0
  7  9  1  0
  9 10  1  0
 10 11  1  0
 11 12  2  0
 12 13  1  0
 13 14  1  0
 14 15  1  0
 14 16  1  0
 14 17  1  0
 13  9  2  0
M  END
>  <inchikey>  (562) 
VJSMDEVMGWXURB-UHFFFAOYSA-N

>  <tags>  (562) 
fragmenstein_placed,CpKRS_FrAncestor_bulkdock_iter2

>  <ref_pdb>  (562) 
x0602b

>  <energy_score>  (562) 
-44.841858

>  <distance_score>  (562) 
0.498276

>  <HIPPO Pose ID>  (562) 
55569

>  <ref_mols>  (562) 
x0504b

>  <smiles>  (562) 
CC(F)C(C)NC(=O)c1scnc1C(F)(F)F

>  <HIPPO Compound ID>  (562) 
147671

>  <alias>  (562) 
VJSMDEVMGWXURB-UHFFFAOYSA-N-P49

>  <subsites>  (562) 


>  <placement_batch>  (562) 
CpKRS_FrAncestor_bulkdock_iter2

>  <name>  (562) 
VJSMDEVMGWXURB-UHFFFAOYSA-N-P49

$$$$
XWFMJMJFZKPONW-UHFFFAOYSA-N-P49
     RDKit          3D

 14 14  0  0  0  0  0  0  0  0999 V2000
    5.1492   -8.6165   22.8845 C   0  0  0  0  0  0  0  0  0  0  0  0
    4.4960   -9.5767   23.8636 C   0  0  2  0  0  0  0  0  0  0  0  0
    5.4582  -10.0033   24.7219 F   0  0  0  0  0  0  0  0  0  0  0  0
    3.7952  -10.7772   23.1979 C   0  0  1  0  0  0  0  0  0  0  0  0
    4.6539  -11.4741   22.1496 C   0  0  0  0  0  0  0  0  0  0  0  0
    3.3299  -11.7311   24.1899 N   0  0  0  0  0  0  0  0  0  0  0  0
    4.0410  -12.9464   24.8232 C   0  0  0  0  0  0  0  0  0  0  0  0
    5.1360  -13.3258   24.7049 O   0  0  0  0  0  0  0  0  0  0  0  0
    3.1247  -13.6609   25.7233 C   0  0  0  0  0  0  0  0  0  0  0  0
    1.5239  -13.1058   26.0576 S   0  0  0  0  0  0  0  0  0  0  0  0
    1.3265  -14.3715   27.1807 C   0  0  0  0  0  0  0  0  0  0  0  0
    2.3197  -15.2135   27.2891 N   0  0  0  0  0  0  0  0  0  0  0  0
    3.3592  -14.8159   26.4587 C   0  0  0  0  0  0  0  0  0  0  0  0
    4.7787  -15.7757   26.4377 Cl  0  0  0  0  0  0  0  0  0  0  0  0
  2  1  1  6
  2  3  1  0
  2  4  1  0
  4  5  1  6
  4  6  1  0
  6  7  1  0
  7  8  2  0
  7  9  1  0
  9 10  1  0
 10 11  1  0
 11 12  2  0
 12 13  1  0
 13 14  1  0
 13  9  2  0
M  END
>  <inchikey>  (563) 
XWFMJMJFZKPONW-UHFFFAOYSA-N

>  <tags>  (563) 
fragmenstein_placed,CpKRS_FrAncestor_bulkdock_iter2

>  <ref_pdb>  (563) 
x0602b

>  <energy_score>  (563) 
-37.665862

>  <distance_score>  (563) 
0.481149

>  <HIPPO Pose ID>  (563) 
55572

>  <ref_mols>  (563) 
x0504b

>  <smiles>  (563) 
CC(F)C(C)NC(=O)c1scnc1Cl

>  <HIPPO Compound ID>  (563) 
450746

>  <alias>  (563) 
XWFMJMJFZKPONW-UHFFFAOYSA-N-P49

>  <subsites>  (563) 


>  <placement_batch>  (563) 
CpKRS_FrAncestor_bulkdock_iter2

>  <name>  (563) 
XWFMJMJFZKPONW-UHFFFAOYSA-N-P49

$$$$
GPRXBRDKYYXGEU-UHFFFAOYSA-N-P6
     RDKit          3D

 10 10  0  0  0  0  0  0  0  0999 V2000
    5.1594   -8.1680   26.0837 C   0  0  0  0  0  0  0  0  0  0  0  0
    5.4143   -9.4497   25.2640 C   0  0  2  0  0  0  0  0  0  0  0  0
    5.0610   -9.1818   23.7828 C   0  0  0  0  0  0  0  0  0  0  0  0
    5.7750   -8.0555   23.2686 O   0  0  0  0  0  0  0  0  0  0  0  0
    4.8112  -10.6510   25.8665 N   0  0  0  0  0  0  0  0  0  0  0  0
    3.5202  -10.4485   26.5476 C   0  0  0  0  0  0  0  0  0  0  0  0
    2.6536  -11.7150   26.6705 C   0  0  0  0  0  0  0  0  0  0  0  0
    3.4361  -12.8837   26.8853 O   0  0  0  0  0  0  0  0  0  0  0  0
    4.4115  -13.0935   25.8617 C   0  0  0  0  0  0  0  0  0  0  0  0
    4.7516  -11.8442   25.0258 C   0  0  0  0  0  0  0  0  0  0  0  0
  2  1  1  1
  2  3  1  0
  3  4  1  0
  2  5  1  0
  5  6  1  0
  6  7  1  0
  7  8  1  0
  8  9  1  0
  9 10  1  0
 10  5  1  0
M  END
>  <inchikey>  (564) 
GPRXBRDKYYXGEU-UHFFFAOYSA-N

>  <tags>  (564) 
fragmenstein_placed,CpKRS_FrAncestor_bulkdock_iter2

>  <ref_pdb>  (564) 
x0602b

>  <energy_score>  (564) 
-24.287841

>  <distance_score>  (564) 
0.477839

>  <HIPPO Pose ID>  (564) 
55574

>  <ref_mols>  (564) 
x0414a

>  <smiles>  (564) 
CC(CO)N1CCOCC1

>  <HIPPO Compound ID>  (564) 
450747

>  <alias>  (564) 
GPRXBRDKYYXGEU-UHFFFAOYSA-N-P6

>  <subsites>  (564) 


>  <placement_batch>  (564) 
CpKRS_FrAncestor_bulkdock_iter2

>  <name>  (564) 
GPRXBRDKYYXGEU-UHFFFAOYSA-N-P6

$$$$
QPIMNUKVCSWMSS-UHFFFAOYSA-N-P40
     RDKit          3D

 14 14  0  0  0  0  0  0  0  0999 V2000
    0.9771  -14.9266   24.8628 C   0  0  0  0  0  0  0  0  0  0  0  0
    1.8528  -15.7788   25.7665 C   0  0  0  0  0  0  0  0  0  0  0  0
    3.3357  -15.4058   25.7250 C   0  0  0  0  0  0  0  0  0  0  0  0
    4.1645  -16.1618   25.4040 O   0  0  0  0  0  0  0  0  0  0  0  0
    3.4394  -13.9133   26.1251 N   0  0  0  0  0  0  0  0  0  0  0  0
    4.5905  -13.0736   26.3030 C   0  0  0  0  0  0  0  0  0  0  0  0
    4.7300  -12.0861   25.1801 C   0  0  0  0  0  0  0  0  0  0  0  0
    5.1061  -10.7603   25.4245 C   0  0  0  0  0  0  0  0  0  0  0  0
    5.2677   -9.8870   24.3511 C   0  0  0  0  0  0  0  0  0  0  0  0
    5.7418   -8.4853   24.5579 C   0  0  0  0  0  0  0  0  0  0  0  0
    5.0608  -10.2595   23.0763 N   0  0  0  0  0  0  0  0  0  0  0  0
    4.7669  -11.5549   22.8504 C   0  0  0  0  0  0  0  0  0  0  0  0
    4.7438  -11.9827   21.4334 C   0  0  0  0  0  0  0  0  0  0  0  0
    4.5809  -12.4907   23.8559 C   0  0  0  0  0  0  0  0  0  0  0  0
  1  2  1  0
  2  3  1  0
  3  4  2  0
  3  5  1  0
  5  6  1  0
  6  7  1  0
  7  8  2  0
  8  9  1  0
  9 10  1  0
  9 11  2  0
 11 12  1  0
 12 13  1  0
 12 14  2  0
 14  7  1  0
M  END
>  <inchikey>  (565) 
QPIMNUKVCSWMSS-UHFFFAOYSA-N

>  <tags>  (565) 
fragmenstein_placed,CpKRS_FrAncestor_bulkdock_iter2

>  <ref_pdb>  (565) 
x0602b

>  <energy_score>  (565) 
-0.401702

>  <distance_score>  (565) 
0.774173

>  <HIPPO Pose ID>  (565) 
55584

>  <ref_mols>  (565) 
x0602b

>  <smiles>  (565) 
CCC(=O)NCc1cc(C)nc(C)c1

>  <HIPPO Compound ID>  (565) 
450752

>  <alias>  (565) 
QPIMNUKVCSWMSS-UHFFFAOYSA-N-P40

>  <subsites>  (565) 


>  <placement_batch>  (565) 
CpKRS_FrAncestor_bulkdock_iter2

>  <name>  (565) 
QPIMNUKVCSWMSS-UHFFFAOYSA-N-P40

$$$$
IBUFARNZMFPURB-UHFFFAOYSA-N-P40
     RDKit          3D

 12 12  0  0  0  0  0  0  0  0999 V2000
    1.1834  -15.5450   25.2539 C   0  0  0  0  0  0  0  0  0  0  0  0
    2.1769  -16.5551   25.8052 C   0  0  0  0  0  0  0  0  0  0  0  0
    3.6666  -16.2438   25.6035 C   0  0  0  0  0  0  0  0  0  0  0  0
    4.4276  -17.0828   25.3190 O   0  0  0  0  0  0  0  0  0  0  0  0
    3.8884  -14.7324   25.8589 N   0  0  0  0  0  0  0  0  0  0  0  0
    5.0692  -13.9281   25.7249 C   0  0  0  0  0  0  0  0  0  0  0  0
    4.8509  -12.7911   24.7624 C   0  0  0  0  0  0  0  0  0  0  0  0
    4.4012  -13.0433   23.4640 C   0  0  0  0  0  0  0  0  0  0  0  0
    4.2817  -11.9884   22.5765 C   0  0  0  0  0  0  0  0  0  0  0  0
    4.5503  -10.7016   22.8941 N   0  0  0  0  0  0  0  0  0  0  0  0
    5.0090  -10.4799   24.1444 C   0  0  0  0  0  0  0  0  0  0  0  0
    5.1643  -11.4723   25.1035 C   0  0  0  0  0  0  0  0  0  0  0  0
  1  2  1  0
  2  3  1  0
  3  4  2  0
  3  5  1  0
  5  6  1  0
  6  7  1  0
  7  8  2  0
  8  9  1  0
  9 10  2  0
 10 11  1  0
 11 12  2  0
 12  7  1  0
M  END
>  <inchikey>  (566) 
IBUFARNZMFPURB-UHFFFAOYSA-N

>  <tags>  (566) 
fragmenstein_placed,CpKRS_FrAncestor_bulkdock_iter2

>  <ref_pdb>  (566) 
x0602b

>  <energy_score>  (566) 
-1.875252

>  <distance_score>  (566) 
0.777268

>  <HIPPO Pose ID>  (566) 
55588

>  <ref_mols>  (566) 
x0602b

>  <smiles>  (566) 
CCC(=O)NCc1ccncc1

>  <HIPPO Compound ID>  (566) 
450754

>  <alias>  (566) 
IBUFARNZMFPURB-UHFFFAOYSA-N-P40

>  <subsites>  (566) 


>  <placement_batch>  (566) 
CpKRS_FrAncestor_bulkdock_iter2

>  <name>  (566) 
IBUFARNZMFPURB-UHFFFAOYSA-N-P40

$$$$
WISUGDRDBNURKP-UHFFFAOYSA-N-P40
     RDKit          3D

 17 17  0  0  0  0  0  0  0  0999 V2000
    1.7805  -16.6603   26.0649 C   0  0  0  0  0  0  0  0  0  0  0  0
    2.0151  -15.3893   25.6910 C   0  0  0  0  0  0  0  0  0  0  0  0
    3.4937  -15.1426   25.4966 C   0  0  0  0  0  0  0  0  0  0  0  0
    4.1490  -15.8947   24.9010 O   0  0  0  0  0  0  0  0  0  0  0  0
    3.8458  -13.7815   26.1002 N   0  0  0  0  0  0  0  0  0  0  0  0
    5.0502  -13.0119   26.0200 C   0  0  0  0  0  0  0  0  0  0  0  0
    5.0047  -12.1502   24.7844 C   0  0  0  0  0  0  0  0  0  0  0  0
    4.7467  -12.7084   23.5236 C   0  0  0  0  0  0  0  0  0  0  0  0
    4.6797  -11.8809   22.4165 C   0  0  0  0  0  0  0  0  0  0  0  0
    4.8577  -10.5459   22.4725 N   0  0  0  0  0  0  0  0  0  0  0  0
    5.1616  -10.0375   23.6820 C   0  0  0  0  0  0  0  0  0  0  0  0
    5.3667   -8.7152   23.7522 F   0  0  0  0  0  0  0  0  0  0  0  0
    5.2342  -10.7769   24.8522 C   0  0  0  0  0  0  0  0  0  0  0  0
    0.9089  -14.3646   25.3827 C   0  0  0  0  0  0  0  0  0  0  0  0
    1.3567  -13.1361   24.5592 C   0  0  0  0  0  0  0  0  0  0  0  0
   -0.2300  -14.9969   24.5459 C   0  0  0  0  0  0  0  0  0  0  0  0
    0.2947  -13.8777   26.7081 C   0  0  0  0  0  0  0  0  0  0  0  0
  1  2  2  0
  2  3  1  0
  3  4  2  0
  3  5  1  0
  5  6  1  0
  6  7  1  0
  7  8  2  0
  8  9  1  0
  9 10  2  0
 10 11  1  0
 11 12  1  0
 11 13  2  0
  2 14  1  0
 14 15  1  0
 14 16  1  0
 14 17  1  0
 13  7  1  0
M  END
>  <inchikey>  (567) 
WISUGDRDBNURKP-UHFFFAOYSA-N

>  <tags>  (567) 
fragmenstein_placed,CpKRS_FrAncestor_bulkdock_iter2

>  <ref_pdb>  (567) 
x0602b

>  <energy_score>  (567) 
-9.925489

>  <distance_score>  (567) 
0.514685

>  <HIPPO Pose ID>  (567) 
55598

>  <ref_mols>  (567) 
x0602b

>  <smiles>  (567) 
C=C(C(=O)NCc1ccnc(F)c1)C(C)(C)C

>  <HIPPO Compound ID>  (567) 
145793

>  <alias>  (567) 
WISUGDRDBNURKP-UHFFFAOYSA-N-P40

>  <subsites>  (567) 


>  <placement_batch>  (567) 
CpKRS_FrAncestor_bulkdock_iter2

>  <name>  (567) 
WISUGDRDBNURKP-UHFFFAOYSA-N-P40

$$$$
WWSCUWIYBINIMN-UHFFFAOYSA-N-P40
     RDKit          3D

 16 16  0  0  0  0  0  0  0  0999 V2000
    2.0918  -16.4270   25.6081 C   0  0  0  0  0  0  0  0  0  0  0  0
    3.3546  -16.7986   25.8541 C   0  0  0  0  0  0  0  0  0  0  0  0
    4.6106  -15.9879   25.7599 C   0  0  0  0  0  0  0  0  0  0  0  0
    5.6268  -16.5238   25.5719 O   0  0  0  0  0  0  0  0  0  0  0  0
    4.2948  -14.5011   25.9821 N   0  0  0  0  0  0  0  0  0  0  0  0
    5.1469  -13.3495   25.9264 C   0  0  0  0  0  0  0  0  0  0  0  0
    4.8686  -12.4833   24.7277 C   0  0  0  0  0  0  0  0  0  0  0  0
    4.4389  -13.0248   23.5221 C   0  0  0  0  0  0  0  0  0  0  0  0
    4.2775  -12.1778   22.4512 C   0  0  0  0  0  0  0  0  0  0  0  0
    4.5183  -10.8494   22.4966 N   0  0  0  0  0  0  0  0  0  0  0  0
    4.9842  -10.3011   23.6396 C   0  0  0  0  0  0  0  0  0  0  0  0
    5.2554   -8.9273   23.6312 N   0  0  0  0  0  0  0  0  0  0  0  0
    5.4318   -8.3917   22.2805 C   0  0  0  0  0  0  0  0  0  0  0  0
    6.1099   -8.3390   24.6686 C   0  0  0  0  0  0  0  0  0  0  0  0
    5.2464   -7.8121   25.8062 C   0  0  0  0  0  0  0  0  0  0  0  0
    5.1383  -11.1041   24.7737 C   0  0  0  0  0  0  0  0  0  0  0  0
  1  2  2  0
  2  3  1  0
  3  4  2  0
  3  5  1  0
  5  6  1  0
  6  7  1  0
  7  8  2  0
  8  9  1  0
  9 10  2  0
 10 11  1  0
 11 12  1  0
 12 13  1  0
 12 14  1  0
 14 15  1  0
 11 16  2  0
 16  7  1  0
M  END
>  <inchikey>  (568) 
WWSCUWIYBINIMN-UHFFFAOYSA-N

>  <tags>  (568) 
fragmenstein_placed,CpKRS_FrAncestor_bulkdock_iter2

>  <ref_pdb>  (568) 
x0602b

>  <energy_score>  (568) 
-5.245665

>  <distance_score>  (568) 
0.825439

>  <HIPPO Pose ID>  (568) 
55610

>  <ref_mols>  (568) 
x0602b

>  <smiles>  (568) 
C=CC(=O)NCc1ccnc(N(C)CC)c1

>  <HIPPO Compound ID>  (568) 
450759

>  <alias>  (568) 
WWSCUWIYBINIMN-UHFFFAOYSA-N-P40

>  <subsites>  (568) 


>  <placement_batch>  (568) 
CpKRS_FrAncestor_bulkdock_iter2

>  <name>  (568) 
WWSCUWIYBINIMN-UHFFFAOYSA-N-P40

$$$$
HGBIVNPCPDYLOC-UHFFFAOYSA-N-P48
     RDKit          3D

 13 13  0  0  0  0  0  0  0  0999 V2000
    4.6570   -9.5561   24.0206 C   0  0  0  0  0  0  0  0  0  0  0  0
    4.6106  -10.5888   22.9100 C   0  0  2  0  0  0  0  0  0  0  0  0
    4.6697   -9.9049   21.7289 F   0  0  0  0  0  0  0  0  0  0  0  0
    3.3224  -11.4154   22.9217 C   0  0  0  0  0  0  0  0  0  0  0  0
    3.1506  -12.2510   24.0816 N   0  0  0  0  0  0  0  0  0  0  0  0
    4.0881  -13.2946   24.7076 C   0  0  0  0  0  0  0  0  0  0  0  0
    5.1790  -13.5901   24.4311 O   0  0  0  0  0  0  0  0  0  0  0  0
    3.4278  -13.9793   25.8183 C   0  0  0  0  0  0  0  0  0  0  0  0
    3.9456  -15.0227   26.5657 C   0  0  0  0  0  0  0  0  0  0  0  0
    3.1887  -15.4308   27.6431 N   0  0  0  0  0  0  0  0  0  0  0  0
    2.1185  -14.6799   27.7098 C   0  0  0  0  0  0  0  0  0  0  0  0
    0.9824  -14.7658   29.2442 Br  0  0  0  0  0  0  0  0  0  0  0  0
    1.8722  -13.5769   26.4322 S   0  0  0  0  0  0  0  0  0  0  0  0
  2  1  1  1
  2  3  1  0
  2  4  1  0
  4  5  1  0
  5  6  1  0
  6  7  2  0
  6  8  1  0
  8  9  2  0
  9 10  1  0
 10 11  2  0
 11 12  1  0
 11 13  1  0
 13  8  1  0
M  END
>  <inchikey>  (569) 
HGBIVNPCPDYLOC-UHFFFAOYSA-N

>  <tags>  (569) 
fragmenstein_placed,CpKRS_FrAncestor_bulkdock_iter2

>  <ref_pdb>  (569) 
x0602b

>  <energy_score>  (569) 
-56.84044

>  <distance_score>  (569) 
0.634885

>  <HIPPO Pose ID>  (569) 
55611

>  <ref_mols>  (569) 
x0504a

>  <smiles>  (569) 
CC(F)CNC(=O)c1cnc(Br)s1

>  <HIPPO Compound ID>  (569) 
450760

>  <alias>  (569) 
HGBIVNPCPDYLOC-UHFFFAOYSA-N-P48

>  <subsites>  (569) 


>  <placement_batch>  (569) 
CpKRS_FrAncestor_bulkdock_iter2

>  <name>  (569) 
HGBIVNPCPDYLOC-UHFFFAOYSA-N-P48

$$$$
SPXAAAUFOMAMJE-UHFFFAOYSA-N-P48
     RDKit          3D

 13 13  0  0  0  0  0  0  0  0999 V2000
    4.5396   -9.8871   23.9192 C   0  0  0  0  0  0  0  0  0  0  0  0
    4.5495  -10.5581   22.7594 C   0  0  0  0  0  0  0  0  0  0  0  0
    4.8554   -9.8317   21.6569 F   0  0  0  0  0  0  0  0  0  0  0  0
    4.2632  -12.0202   22.5443 C   0  0  0  0  0  0  0  0  0  0  0  0
    3.8592  -12.6946   23.7460 N   0  0  0  0  0  0  0  0  0  0  0  0
    4.5751  -13.7689   24.5748 C   0  0  0  0  0  0  0  0  0  0  0  0
    5.6389  -14.2242   24.4605 O   0  0  0  0  0  0  0  0  0  0  0  0
    3.7390  -14.2236   25.6836 C   0  0  0  0  0  0  0  0  0  0  0  0
    4.0610  -15.2245   26.5839 C   0  0  0  0  0  0  0  0  0  0  0  0
    3.1614  -15.4385   27.6030 N   0  0  0  0  0  0  0  0  0  0  0  0
    2.1779  -14.5854   27.4733 C   0  0  0  0  0  0  0  0  0  0  0  0
    0.8530  -14.4533   28.8349 Br  0  0  0  0  0  0  0  0  0  0  0  0
    2.2032  -13.5754   26.0985 S   0  0  0  0  0  0  0  0  0  0  0  0
  1  2  2  0
  2  3  1  0
  2  4  1  0
  4  5  1  0
  5  6  1  0
  6  7  2  0
  6  8  1  0
  8  9  2  0
  9 10  1  0
 10 11  2  0
 11 12  1  0
 11 13  1  0
 13  8  1  0
M  END
>  <inchikey>  (570) 
SPXAAAUFOMAMJE-UHFFFAOYSA-N

>  <tags>  (570) 
fragmenstein_placed,CpKRS_FrAncestor_bulkdock_iter2

>  <ref_pdb>  (570) 
x0602b

>  <energy_score>  (570) 
-31.809134

>  <distance_score>  (570) 
0.816326

>  <HIPPO Pose ID>  (570) 
55614

>  <ref_mols>  (570) 
x0504a

>  <smiles>  (570) 
C=C(F)CNC(=O)c1cnc(Br)s1

>  <HIPPO Compound ID>  (570) 
450761

>  <alias>  (570) 
SPXAAAUFOMAMJE-UHFFFAOYSA-N-P48

>  <subsites>  (570) 


>  <placement_batch>  (570) 
CpKRS_FrAncestor_bulkdock_iter2

>  <name>  (570) 
SPXAAAUFOMAMJE-UHFFFAOYSA-N-P48

$$$$
ZVGMYYCHSJRJHA-UHFFFAOYSA-N-P49
     RDKit          3D

 13 13  0  0  0  0  0  0  0  0999 V2000
    5.3595   -8.8470   22.6464 C   0  0  0  0  0  0  0  0  0  0  0  0
    4.9859   -9.8758   23.4158 C   0  0  0  0  0  0  0  0  0  0  0  0
    4.8139   -9.6263   24.7367 F   0  0  0  0  0  0  0  0  0  0  0  0
    4.7308  -11.2568   22.8862 C   0  0  0  0  0  0  0  0  0  0  0  0
    3.9896  -11.9866   23.8679 N   0  0  0  0  0  0  0  0  0  0  0  0
    4.3406  -13.2746   24.6307 C   0  0  0  0  0  0  0  0  0  0  0  0
    5.3197  -13.9037   24.6381 O   0  0  0  0  0  0  0  0  0  0  0  0
    3.2257  -13.6592   25.4948 C   0  0  0  0  0  0  0  0  0  0  0  0
    3.1774  -14.6823   26.4301 C   0  0  0  0  0  0  0  0  0  0  0  0
    1.9872  -14.8055   27.1353 N   0  0  0  0  0  0  0  0  0  0  0  0
    1.1814  -13.8674   26.7159 C   0  0  0  0  0  0  0  0  0  0  0  0
   -0.4053  -13.6481   27.3102 Cl  0  0  0  0  0  0  0  0  0  0  0  0
    1.7196  -12.8341   25.4966 S   0  0  0  0  0  0  0  0  0  0  0  0
  1  2  2  0
  2  3  1  0
  2  4  1  0
  4  5  1  0
  5  6  1  0
  6  7  2  0
  6  8  1  0
  8  9  2  0
  9 10  1  0
 10 11  2  0
 11 12  1  0
 11 13  1  0
 13  8  1  0
M  END
>  <inchikey>  (571) 
ZVGMYYCHSJRJHA-UHFFFAOYSA-N

>  <tags>  (571) 
fragmenstein_placed,CpKRS_FrAncestor_bulkdock_iter2

>  <ref_pdb>  (571) 
x0602b

>  <energy_score>  (571) 
-40.504681

>  <distance_score>  (571) 
0.560426

>  <HIPPO Pose ID>  (571) 
55618

>  <ref_mols>  (571) 
x0504b

>  <smiles>  (571) 
C=C(F)CNC(=O)c1cnc(Cl)s1

>  <HIPPO Compound ID>  (571) 
450762

>  <alias>  (571) 
ZVGMYYCHSJRJHA-UHFFFAOYSA-N-P49

>  <subsites>  (571) 


>  <placement_batch>  (571) 
CpKRS_FrAncestor_bulkdock_iter2

>  <name>  (571) 
ZVGMYYCHSJRJHA-UHFFFAOYSA-N-P49

$$$$
HLWUYJNZVASOLQ-UHFFFAOYSA-N-P48
     RDKit          3D

 13 13  0  0  0  0  0  0  0  0999 V2000
    4.6485   -9.5512   24.0109 C   0  0  0  0  0  0  0  0  0  0  0  0
    4.6406  -10.5874   22.9024 C   0  0  2  0  0  0  0  0  0  0  0  0
    4.7202   -9.9061   21.7208 F   0  0  0  0  0  0  0  0  0  0  0  0
    3.3629  -11.4283   22.8831 C   0  0  0  0  0  0  0  0  0  0  0  0
    3.1532  -12.2434   24.0509 N   0  0  0  0  0  0  0  0  0  0  0  0
    4.0810  -13.2544   24.7423 C   0  0  0  0  0  0  0  0  0  0  0  0
    5.1895  -13.5325   24.5236 O   0  0  0  0  0  0  0  0  0  0  0  0
    3.3801  -13.9255   25.8363 C   0  0  0  0  0  0  0  0  0  0  0  0
    3.8633  -14.9598   26.6213 C   0  0  0  0  0  0  0  0  0  0  0  0
    3.0606  -15.3478   27.6757 N   0  0  0  0  0  0  0  0  0  0  0  0
    1.9956  -14.5903   27.6739 C   0  0  0  0  0  0  0  0  0  0  0  0
    0.8800  -14.6088   28.9691 Cl  0  0  0  0  0  0  0  0  0  0  0  0
    1.8047  -13.5021   26.3861 S   0  0  0  0  0  0  0  0  0  0  0  0
  2  1  1  1
  2  3  1  0
  2  4  1  0
  4  5  1  0
  5  6  1  0
  6  7  2  0
  6  8  1  0
  8  9  2  0
  9 10  1  0
 10 11  2  0
 11 12  1  0
 11 13  1  0
 13  8  1  0
M  END
>  <inchikey>  (572) 
HLWUYJNZVASOLQ-UHFFFAOYSA-N

>  <tags>  (572) 
fragmenstein_placed,CpKRS_FrAncestor_bulkdock_iter2

>  <ref_pdb>  (572) 
x0602b

>  <energy_score>  (572) 
-65.359492

>  <distance_score>  (572) 
0.572173

>  <HIPPO Pose ID>  (572) 
55620

>  <ref_mols>  (572) 
x0504a

>  <smiles>  (572) 
CC(F)CNC(=O)c1cnc(Cl)s1

>  <HIPPO Compound ID>  (572) 
450763

>  <alias>  (572) 
HLWUYJNZVASOLQ-UHFFFAOYSA-N-P48

>  <subsites>  (572) 


>  <placement_batch>  (572) 
CpKRS_FrAncestor_bulkdock_iter2

>  <name>  (572) 
HLWUYJNZVASOLQ-UHFFFAOYSA-N-P48

$$$$
CLIMNDZLIVHVIM-UHFFFAOYSA-N-P48
     RDKit          3D

 13 13  0  0  0  0  0  0  0  0999 V2000
    4.5702   -9.7549   23.8058 C   0  0  0  0  0  0  0  0  0  0  0  0
    4.6853  -10.4669   22.6758 C   0  0  0  0  0  0  0  0  0  0  0  0
    5.0240   -9.7698   21.5643 F   0  0  0  0  0  0  0  0  0  0  0  0
    4.4739  -11.9475   22.5059 C   0  0  0  0  0  0  0  0  0  0  0  0
    3.8858  -12.5454   23.6705 N   0  0  0  0  0  0  0  0  0  0  0  0
    4.5200  -13.3879   24.7888 C   0  0  0  0  0  0  0  0  0  0  0  0
    5.6330  -13.6666   24.9843 O   0  0  0  0  0  0  0  0  0  0  0  0
    3.4881  -13.8782   25.7009 C   0  0  0  0  0  0  0  0  0  0  0  0
    3.6335  -14.8379   26.6849 C   0  0  0  0  0  0  0  0  0  0  0  0
    2.5095  -15.1060   27.4417 N   0  0  0  0  0  0  0  0  0  0  0  0
    1.5288  -14.3226   27.0535 C   0  0  0  0  0  0  0  0  0  0  0  0
    0.1825  -14.3089   27.6712 C   0  0  0  0  0  0  0  0  0  0  0  0
    1.8784  -13.2874   25.7331 S   0  0  0  0  0  0  0  0  0  0  0  0
  1  2  2  0
  2  3  1  0
  2  4  1  0
  4  5  1  0
  5  6  1  0
  6  7  2  0
  6  8  1  0
  8  9  2  0
  9 10  1  0
 10 11  2  0
 11 12  1  0
 11 13  1  0
 13  8  1  0
M  END
>  <inchikey>  (573) 
CLIMNDZLIVHVIM-UHFFFAOYSA-N

>  <tags>  (573) 
fragmenstein_placed,CpKRS_FrAncestor_bulkdock_iter2

>  <ref_pdb>  (573) 
x0602b

>  <energy_score>  (573) 
-7.459858

>  <distance_score>  (573) 
0.56324

>  <HIPPO Pose ID>  (573) 
55623

>  <ref_mols>  (573) 
x0504a

>  <smiles>  (573) 
C=C(F)CNC(=O)c1cnc(C)s1

>  <HIPPO Compound ID>  (573) 
450764

>  <alias>  (573) 
CLIMNDZLIVHVIM-UHFFFAOYSA-N-P48

>  <subsites>  (573) 


>  <placement_batch>  (573) 
CpKRS_FrAncestor_bulkdock_iter2

>  <name>  (573) 
CLIMNDZLIVHVIM-UHFFFAOYSA-N-P48

$$$$
FRQKSBQEWHMYFW-UHFFFAOYSA-N-P48
     RDKit          3D

 16 16  0  0  0  0  0  0  0  0999 V2000
    5.2997  -10.2295   21.8631 C   0  0  0  0  0  0  0  0  0  0  0  0
    4.6445  -10.5115   23.2126 C   0  0  2  0  0  0  0  0  0  0  0  0
    5.5959  -11.0677   24.0187 F   0  0  0  0  0  0  0  0  0  0  0  0
    3.4792  -11.4965   23.0471 C   0  0  0  0  0  0  0  0  0  0  0  0
    3.1064  -12.2211   24.2367 N   0  0  0  0  0  0  0  0  0  0  0  0
    3.7869  -13.4132   24.9371 C   0  0  0  0  0  0  0  0  0  0  0  0
    4.7960  -13.9476   24.7072 O   0  0  0  0  0  0  0  0  0  0  0  0
    2.9443  -13.9081   26.0277 C   0  0  0  0  0  0  0  0  0  0  0  0
    3.2655  -14.8828   26.9554 C   0  0  0  0  0  0  0  0  0  0  0  0
    2.2890  -15.1795   27.8906 N   0  0  0  0  0  0  0  0  0  0  0  0
    1.2298  -14.4404   27.6537 C   0  0  0  0  0  0  0  0  0  0  0  0
    1.3366  -13.3765   26.3170 S   0  0  0  0  0  0  0  0  0  0  0  0
    4.1716   -9.2035   23.8221 C   0  0  0  0  0  0  0  0  0  0  0  0
    3.5344   -9.3596   25.0004 F   0  0  0  0  0  0  0  0  0  0  0  0
    3.2800   -8.5701   22.9982 F   0  0  0  0  0  0  0  0  0  0  0  0
    5.1961   -8.3417   24.0154 F   0  0  0  0  0  0  0  0  0  0  0  0
  2  1  1  6
  2  3  1  0
  2  4  1  0
  4  5  1  0
  5  6  1  0
  6  7  2  0
  6  8  1  0
  8  9  2  0
  9 10  1  0
 10 11  2  0
 11 12  1  0
  2 13  1  0
 13 14  1  0
 13 15  1  0
 13 16  1  0
 12  8  1  0
M  END
>  <inchikey>  (574) 
FRQKSBQEWHMYFW-UHFFFAOYSA-N

>  <tags>  (574) 
fragmenstein_placed,CpKRS_FrAncestor_bulkdock_iter2

>  <ref_pdb>  (574) 
x0602b

>  <energy_score>  (574) 
-35.839329

>  <distance_score>  (574) 
0.465883

>  <HIPPO Pose ID>  (574) 
55626

>  <ref_mols>  (574) 
x0504a

>  <smiles>  (574) 
CC(F)(CNC(=O)c1cncs1)C(F)(F)F

>  <HIPPO Compound ID>  (574) 
124687

>  <alias>  (574) 
FRQKSBQEWHMYFW-UHFFFAOYSA-N-P48

>  <subsites>  (574) 


>  <placement_batch>  (574) 
CpKRS_FrAncestor_bulkdock_iter2

>  <name>  (574) 
FRQKSBQEWHMYFW-UHFFFAOYSA-N-P48

$$$$
DEMJZZQNRAONDF-UHFFFAOYSA-N-P47
     RDKit          3D

 12 12  0  0  0  0  0  0  0  0999 V2000
    3.5942    8.3694   40.5656 C   0  0  0  0  0  0  0  0  0  0  0  0
    3.3788    7.9037   41.8006 C   0  0  0  0  0  0  0  0  0  0  0  0
    4.4237    7.9268   42.6570 F   0  0  0  0  0  0  0  0  0  0  0  0
    2.0761    7.3394   42.2725 C   0  0  0  0  0  0  0  0  0  0  0  0
    2.3246    6.4412   43.3628 N   0  0  0  0  0  0  0  0  0  0  0  0
    2.9613    5.0456   43.3794 C   0  0  0  0  0  0  0  0  0  0  0  0
    3.4562    4.4320   42.5232 O   0  0  0  0  0  0  0  0  0  0  0  0
    2.9405    4.4843   44.7292 C   0  0  0  0  0  0  0  0  0  0  0  0
    3.5462    3.3129   45.1461 C   0  0  0  0  0  0  0  0  0  0  0  0
    3.3671    2.9720   46.4730 N   0  0  0  0  0  0  0  0  0  0  0  0
    2.6208    3.8884   47.0496 C   0  0  0  0  0  0  0  0  0  0  0  0
    2.1238    5.1934   46.0586 S   0  0  0  0  0  0  0  0  0  0  0  0
  1  2  2  0
  2  3  1  0
  2  4  1  0
  4  5  1  0
  5  6  1  0
  6  7  2  0
  6  8  1  0
  8  9  2  0
  9 10  1  0
 10 11  2  0
 11 12  1  0
 12  8  1  0
M  END
>  <inchikey>  (575) 
DEMJZZQNRAONDF-UHFFFAOYSA-N

>  <tags>  (575) 
fragmenstein_placed,CpKRS_FrAncestor_bulkdock_iter2

>  <ref_pdb>  (575) 
x0602b

>  <energy_score>  (575) 
-34.706994

>  <distance_score>  (575) 
0.390837

>  <HIPPO Pose ID>  (575) 
55631

>  <ref_mols>  (575) 
x0504c

>  <smiles>  (575) 
C=C(F)CNC(=O)c1cncs1

>  <HIPPO Compound ID>  (575) 
450765

>  <alias>  (575) 
DEMJZZQNRAONDF-UHFFFAOYSA-N-P47

>  <subsites>  (575) 


>  <placement_batch>  (575) 
CpKRS_FrAncestor_bulkdock_iter2

>  <name>  (575) 
DEMJZZQNRAONDF-UHFFFAOYSA-N-P47

$$$$
GPGSNYJZRRGKIX-UHFFFAOYSA-N-P49
     RDKit          3D

 12 12  0  0  0  0  0  0  0  0999 V2000
    5.1789   -8.9488   22.6605 C   0  0  0  0  0  0  0  0  0  0  0  0
    4.4376   -9.8587   23.6217 C   0  0  2  0  0  0  0  0  0  0  0  0
    5.0663   -9.7991   24.8272 F   0  0  0  0  0  0  0  0  0  0  0  0
    4.3993  -11.3041   23.1251 C   0  0  0  0  0  0  0  0  0  0  0  0
    3.7560  -12.1944   24.0606 N   0  0  0  0  0  0  0  0  0  0  0  0
    4.3087  -13.4093   24.8260 C   0  0  0  0  0  0  0  0  0  0  0  0
    5.3482  -13.9303   24.7649 O   0  0  0  0  0  0  0  0  0  0  0  0
    3.3095  -13.9210   25.7677 C   0  0  0  0  0  0  0  0  0  0  0  0
    3.4740  -14.9630   26.6646 C   0  0  0  0  0  0  0  0  0  0  0  0
    2.3967  -15.2344   27.4889 N   0  0  0  0  0  0  0  0  0  0  0  0
    1.4311  -14.3935   27.2110 C   0  0  0  0  0  0  0  0  0  0  0  0
    1.7249  -13.2796   25.9467 S   0  0  0  0  0  0  0  0  0  0  0  0
  2  1  1  6
  2  3  1  0
  2  4  1  0
  4  5  1  0
  5  6  1  0
  6  7  2  0
  6  8  1  0
  8  9  2  0
  9 10  1  0
 10 11  2  0
 11 12  1  0
 12  8  1  0
M  END
>  <inchikey>  (576) 
GPGSNYJZRRGKIX-UHFFFAOYSA-N

>  <tags>  (576) 
fragmenstein_placed,CpKRS_FrAncestor_bulkdock_iter2

>  <ref_pdb>  (576) 
x0602b

>  <energy_score>  (576) 
-42.649305

>  <distance_score>  (576) 
0.52948

>  <HIPPO Pose ID>  (576) 
55633

>  <ref_mols>  (576) 
x0504b

>  <smiles>  (576) 
CC(F)CNC(=O)c1cncs1

>  <HIPPO Compound ID>  (576) 
450766

>  <alias>  (576) 
GPGSNYJZRRGKIX-UHFFFAOYSA-N-P49

>  <subsites>  (576) 


>  <placement_batch>  (576) 
CpKRS_FrAncestor_bulkdock_iter2

>  <name>  (576) 
GPGSNYJZRRGKIX-UHFFFAOYSA-N-P49

$$$$
MRFJQTFADIYQJR-UHFFFAOYSA-N-P49
     RDKit          3D

 13 13  0  0  0  0  0  0  0  0999 V2000
    5.2010   -8.7271   22.7601 C   0  0  0  0  0  0  0  0  0  0  0  0
    4.4495   -9.6294   23.7204 C   0  0  2  0  0  0  0  0  0  0  0  0
    5.1924   -9.7476   24.8540 F   0  0  0  0  0  0  0  0  0  0  0  0
    4.2007  -11.0078   23.1147 C   0  0  0  0  0  0  0  0  0  0  0  0
    3.5808  -11.9163   24.0419 N   0  0  0  0  0  0  0  0  0  0  0  0
    4.0926  -13.2303   24.6411 C   0  0  0  0  0  0  0  0  0  0  0  0
    5.0648  -13.8293   24.4238 O   0  0  0  0  0  0  0  0  0  0  0  0
    3.0827  -13.7097   25.6127 C   0  0  0  0  0  0  0  0  0  0  0  0
    1.8734  -13.0039   25.7963 N   0  0  0  0  0  0  0  0  0  0  0  0
    1.1711  -13.5839   26.7436 C   0  0  0  0  0  0  0  0  0  0  0  0
    1.8343  -14.9988   27.4343 S   0  0  0  0  0  0  0  0  0  0  0  0
    3.1888  -14.8267   26.4173 C   0  0  0  0  0  0  0  0  0  0  0  0
    4.6280  -16.0684   26.4613 Br  0  0  0  0  0  0  0  0  0  0  0  0
  2  1  1  6
  2  3  1  0
  2  4  1  0
  4  5  1  0
  5  6  1  0
  6  7  2  0
  6  8  1  0
  8  9  1  0
  9 10  2  0
 10 11  1  0
 11 12  1  0
 12 13  1  0
 12  8  2  0
M  END
>  <inchikey>  (577) 
MRFJQTFADIYQJR-UHFFFAOYSA-N

>  <tags>  (577) 
fragmenstein_placed,CpKRS_FrAncestor_bulkdock_iter2

>  <ref_pdb>  (577) 
x0602b

>  <energy_score>  (577) 
-70.08101

>  <distance_score>  (577) 
0.660044

>  <HIPPO Pose ID>  (577) 
55636

>  <ref_mols>  (577) 
x0504b

>  <smiles>  (577) 
CC(F)CNC(=O)c1ncsc1Br

>  <HIPPO Compound ID>  (577) 
450767

>  <alias>  (577) 
MRFJQTFADIYQJR-UHFFFAOYSA-N-P49

>  <subsites>  (577) 


>  <placement_batch>  (577) 
CpKRS_FrAncestor_bulkdock_iter2

>  <name>  (577) 
MRFJQTFADIYQJR-UHFFFAOYSA-N-P49

$$$$
AURIJFOVBLRCEJ-UHFFFAOYSA-N-P47
     RDKit          3D

 13 13  0  0  0  0  0  0  0  0999 V2000
    3.5432    8.4173   40.6021 C   0  0  0  0  0  0  0  0  0  0  0  0
    3.3522    8.0605   41.8768 C   0  0  0  0  0  0  0  0  0  0  0  0
    4.4494    7.9690   42.6596 F   0  0  0  0  0  0  0  0  0  0  0  0
    2.0219    7.7073   42.4657 C   0  0  0  0  0  0  0  0  0  0  0  0
    2.1930    6.6481   43.4161 N   0  0  0  0  0  0  0  0  0  0  0  0
    2.8306    5.2670   43.2609 C   0  0  0  0  0  0  0  0  0  0  0  0
    3.2521    4.7336   42.3189 O   0  0  0  0  0  0  0  0  0  0  0  0
    2.8605    4.6216   44.5878 C   0  0  0  0  0  0  0  0  0  0  0  0
    2.2026    5.2122   45.6829 N   0  0  0  0  0  0  0  0  0  0  0  0
    2.3125    4.4390   46.7404 C   0  0  0  0  0  0  0  0  0  0  0  0
    3.2449    3.0251   46.5338 S   0  0  0  0  0  0  0  0  0  0  0  0
    3.4965    3.4387   44.9055 C   0  0  0  0  0  0  0  0  0  0  0  0
    4.5305    2.3323   43.7435 Br  0  0  0  0  0  0  0  0  0  0  0  0
  1  2  2  0
  2  3  1  0
  2  4  1  0
  4  5  1  0
  5  6  1  0
  6  7  2  0
  6  8  1  0
  8  9  1  0
  9 10  2  0
 10 11  1  0
 11 12  1  0
 12 13  1  0
 12  8  2  0
M  END
>  <inchikey>  (578) 
AURIJFOVBLRCEJ-UHFFFAOYSA-N

>  <tags>  (578) 
fragmenstein_placed,CpKRS_FrAncestor_bulkdock_iter2

>  <ref_pdb>  (578) 
x0602b

>  <energy_score>  (578) 
-48.266496

>  <distance_score>  (578) 
0.524586

>  <HIPPO Pose ID>  (578) 
55640

>  <ref_mols>  (578) 
x0504c

>  <smiles>  (578) 
C=C(F)CNC(=O)c1ncsc1Br

>  <HIPPO Compound ID>  (578) 
450768

>  <alias>  (578) 
AURIJFOVBLRCEJ-UHFFFAOYSA-N-P47

>  <subsites>  (578) 


>  <placement_batch>  (578) 
CpKRS_FrAncestor_bulkdock_iter2

>  <name>  (578) 
AURIJFOVBLRCEJ-UHFFFAOYSA-N-P47

$$$$
YOOVKLYKMAGMBI-UHFFFAOYSA-N-P47
     RDKit          3D

 16 16  0  0  0  0  0  0  0  0999 V2000
    3.5118    8.3261   40.5306 C   0  0  0  0  0  0  0  0  0  0  0  0
    3.3603    7.9942   41.8169 C   0  0  0  0  0  0  0  0  0  0  0  0
    4.4628    8.0419   42.5966 F   0  0  0  0  0  0  0  0  0  0  0  0
    2.0733    7.5369   42.4287 C   0  0  0  0  0  0  0  0  0  0  0  0
    2.3622    6.5423   43.4188 N   0  0  0  0  0  0  0  0  0  0  0  0
    2.9700    5.1491   43.2777 C   0  0  0  0  0  0  0  0  0  0  0  0
    3.4065    4.6087   42.3475 O   0  0  0  0  0  0  0  0  0  0  0  0
    2.9663    4.5005   44.5990 C   0  0  0  0  0  0  0  0  0  0  0  0
    2.3058    5.0884   45.6864 N   0  0  0  0  0  0  0  0  0  0  0  0
    2.4195    4.3198   46.7442 C   0  0  0  0  0  0  0  0  0  0  0  0
    3.3331    2.8979   46.5263 S   0  0  0  0  0  0  0  0  0  0  0  0
    3.5868    3.2949   44.8804 C   0  0  0  0  0  0  0  0  0  0  0  0
    4.3434    2.4007   43.9635 C   0  0  0  0  0  0  0  0  0  0  0  0
    5.4194    3.0086   43.4116 F   0  0  0  0  0  0  0  0  0  0  0  0
    3.5617    1.9268   42.9640 F   0  0  0  0  0  0  0  0  0  0  0  0
    4.8282    1.2971   44.6023 F   0  0  0  0  0  0  0  0  0  0  0  0
  1  2  2  0
  2  3  1  0
  2  4  1  0
  4  5  1  0
  5  6  1  0
  6  7  2  0
  6  8  1  0
  8  9  1  0
  9 10  2  0
 10 11  1  0
 11 12  1  0
 12 13  1  0
 13 14  1  0
 13 15  1  0
 13 16  1  0
 12  8  2  0
M  END
>  <inchikey>  (579) 
YOOVKLYKMAGMBI-UHFFFAOYSA-N

>  <tags>  (579) 
fragmenstein_placed,CpKRS_FrAncestor_bulkdock_iter2

>  <ref_pdb>  (579) 
x0602b

>  <energy_score>  (579) 
-59.381514

>  <distance_score>  (579) 
0.459611

>  <HIPPO Pose ID>  (579) 
55643

>  <ref_mols>  (579) 
x0504c

>  <smiles>  (579) 
C=C(F)CNC(=O)c1ncsc1C(F)(F)F

>  <HIPPO Compound ID>  (579) 
123168

>  <alias>  (579) 
YOOVKLYKMAGMBI-UHFFFAOYSA-N-P47

>  <subsites>  (579) 


>  <placement_batch>  (579) 
CpKRS_FrAncestor_bulkdock_iter2

>  <name>  (579) 
YOOVKLYKMAGMBI-UHFFFAOYSA-N-P47

$$$$
KBUUMBMNOLRYTI-UHFFFAOYSA-N-P47
     RDKit          3D

 16 16  0  0  0  0  0  0  0  0999 V2000
    3.4661    8.9767   40.7818 C   0  0  0  0  0  0  0  0  0  0  0  0
    3.5214    7.7638   41.6860 C   0  0  1  0  0  0  0  0  0  0  0  0
    4.4843    7.9815   42.6302 F   0  0  0  0  0  0  0  0  0  0  0  0
    2.1924    7.5122   42.3945 C   0  0  0  0  0  0  0  0  0  0  0  0
    2.3000    6.4477   43.3583 N   0  0  0  0  0  0  0  0  0  0  0  0
    3.0089    5.0980   43.2714 C   0  0  0  0  0  0  0  0  0  0  0  0
    3.5572    4.5912   42.3818 O   0  0  0  0  0  0  0  0  0  0  0  0
    2.9719    4.4618   44.5977 C   0  0  0  0  0  0  0  0  0  0  0  0
    2.2975    5.0626   45.6679 N   0  0  0  0  0  0  0  0  0  0  0  0
    2.3976    4.3078   46.7373 C   0  0  0  0  0  0  0  0  0  0  0  0
    3.3236    2.8892   46.5503 S   0  0  0  0  0  0  0  0  0  0  0  0
    3.5936    3.2634   44.9031 C   0  0  0  0  0  0  0  0  0  0  0  0
    4.3633    2.3630   44.0049 C   0  0  0  0  0  0  0  0  0  0  0  0
    5.4640    2.9631   43.4884 F   0  0  0  0  0  0  0  0  0  0  0  0
    3.6076    1.9074   42.9783 F   0  0  0  0  0  0  0  0  0  0  0  0
    4.8218    1.2540   44.6507 F   0  0  0  0  0  0  0  0  0  0  0  0
  2  1  1  6
  2  3  1  0
  2  4  1  0
  4  5  1  0
  5  6  1  0
  6  7  2  0
  6  8  1  0
  8  9  1  0
  9 10  2  0
 10 11  1  0
 11 12  1  0
 12 13  1  0
 13 14  1  0
 13 15  1  0
 13 16  1  0
 12  8  2  0
M  END
>  <inchikey>  (580) 
KBUUMBMNOLRYTI-UHFFFAOYSA-N

>  <tags>  (580) 
fragmenstein_placed,CpKRS_FrAncestor_bulkdock_iter2

>  <ref_pdb>  (580) 
x0602b

>  <energy_score>  (580) 
-36.354187

>  <distance_score>  (580) 
0.393012

>  <HIPPO Pose ID>  (580) 
55646

>  <ref_mols>  (580) 
x0504c

>  <smiles>  (580) 
CC(F)CNC(=O)c1ncsc1C(F)(F)F

>  <HIPPO Compound ID>  (580) 
138185

>  <alias>  (580) 
KBUUMBMNOLRYTI-UHFFFAOYSA-N-P47

>  <subsites>  (580) 


>  <placement_batch>  (580) 
CpKRS_FrAncestor_bulkdock_iter2

>  <name>  (580) 
KBUUMBMNOLRYTI-UHFFFAOYSA-N-P47

$$$$
UODRFRQFXZDIIL-UHFFFAOYSA-N-P49
     RDKit          3D

 13 13  0  0  0  0  0  0  0  0999 V2000
    5.1702   -8.8323   22.6717 C   0  0  0  0  0  0  0  0  0  0  0  0
    4.4502   -9.6995   23.6867 C   0  0  2  0  0  0  0  0  0  0  0  0
    5.1553   -9.6554   24.8511 F   0  0  0  0  0  0  0  0  0  0  0  0
    4.3292  -11.1441   23.2109 C   0  0  0  0  0  0  0  0  0  0  0  0
    3.7491  -12.0038   24.2096 N   0  0  0  0  0  0  0  0  0  0  0  0
    4.1981  -13.3754   24.7251 C   0  0  0  0  0  0  0  0  0  0  0  0
    5.1499  -13.9974   24.4820 O   0  0  0  0  0  0  0  0  0  0  0  0
    3.1834  -13.8525   25.6855 C   0  0  0  0  0  0  0  0  0  0  0  0
    1.9762  -13.1473   25.8802 N   0  0  0  0  0  0  0  0  0  0  0  0
    1.2815  -13.7389   26.8269 C   0  0  0  0  0  0  0  0  0  0  0  0
    1.9530  -15.1615   27.4996 S   0  0  0  0  0  0  0  0  0  0  0  0
    3.2981  -14.9736   26.4786 C   0  0  0  0  0  0  0  0  0  0  0  0
    4.5654  -16.1186   26.5650 Cl  0  0  0  0  0  0  0  0  0  0  0  0
  2  1  1  6
  2  3  1  0
  2  4  1  0
  4  5  1  0
  5  6  1  0
  6  7  2  0
  6  8  1  0
  8  9  1  0
  9 10  2  0
 10 11  1  0
 11 12  1  0
 12 13  1  0
 12  8  2  0
M  END
>  <inchikey>  (581) 
UODRFRQFXZDIIL-UHFFFAOYSA-N

>  <tags>  (581) 
fragmenstein_placed,CpKRS_FrAncestor_bulkdock_iter2

>  <ref_pdb>  (581) 
x0602b

>  <energy_score>  (581) 
-61.870955

>  <distance_score>  (581) 
0.49964

>  <HIPPO Pose ID>  (581) 
55648

>  <ref_mols>  (581) 
x0504b

>  <smiles>  (581) 
CC(F)CNC(=O)c1ncsc1Cl

>  <HIPPO Compound ID>  (581) 
450769

>  <alias>  (581) 
UODRFRQFXZDIIL-UHFFFAOYSA-N-P49

>  <subsites>  (581) 


>  <placement_batch>  (581) 
CpKRS_FrAncestor_bulkdock_iter2

>  <name>  (581) 
UODRFRQFXZDIIL-UHFFFAOYSA-N-P49

$$$$
ZNDBYTCHRVDEAM-UHFFFAOYSA-N-P49
     RDKit          3D

 13 13  0  0  0  0  0  0  0  0999 V2000
    5.5075   -9.3869   23.0328 C   0  0  0  0  0  0  0  0  0  0  0  0
    4.4878   -9.9146   23.7209 C   0  0  0  0  0  0  0  0  0  0  0  0
    4.3137   -9.4800   24.9904 F   0  0  0  0  0  0  0  0  0  0  0  0
    3.5406  -10.9351   23.1652 C   0  0  0  0  0  0  0  0  0  0  0  0
    3.1942  -11.8964   24.1678 N   0  0  0  0  0  0  0  0  0  0  0  0
    3.9190  -13.1700   24.6198 C   0  0  0  0  0  0  0  0  0  0  0  0
    4.8735  -13.6839   24.1988 O   0  0  0  0  0  0  0  0  0  0  0  0
    3.1207  -13.7771   25.7065 C   0  0  0  0  0  0  0  0  0  0  0  0
    1.8732  -13.2237   26.0747 N   0  0  0  0  0  0  0  0  0  0  0  0
    1.3718  -13.9182   27.0717 C   0  0  0  0  0  0  0  0  0  0  0  0
    2.2717  -15.2748   27.5944 S   0  0  0  0  0  0  0  0  0  0  0  0
    3.4623  -14.8942   26.4404 C   0  0  0  0  0  0  0  0  0  0  0  0
    4.8534  -15.8886   26.3478 Cl  0  0  0  0  0  0  0  0  0  0  0  0
  1  2  2  0
  2  3  1  0
  2  4  1  0
  4  5  1  0
  5  6  1  0
  6  7  2  0
  6  8  1  0
  8  9  1  0
  9 10  2  0
 10 11  1  0
 11 12  1  0
 12 13  1  0
 12  8  2  0
M  END
>  <inchikey>  (582) 
ZNDBYTCHRVDEAM-UHFFFAOYSA-N

>  <tags>  (582) 
fragmenstein_placed,CpKRS_FrAncestor_bulkdock_iter2

>  <ref_pdb>  (582) 
x0602b

>  <energy_score>  (582) 
-50.579483

>  <distance_score>  (582) 
0.47265

>  <HIPPO Pose ID>  (582) 
55651

>  <ref_mols>  (582) 
x0504b

>  <smiles>  (582) 
C=C(F)CNC(=O)c1ncsc1Cl

>  <HIPPO Compound ID>  (582) 
450770

>  <alias>  (582) 
ZNDBYTCHRVDEAM-UHFFFAOYSA-N-P49

>  <subsites>  (582) 


>  <placement_batch>  (582) 
CpKRS_FrAncestor_bulkdock_iter2

>  <name>  (582) 
ZNDBYTCHRVDEAM-UHFFFAOYSA-N-P49

$$$$
DBQDALMREGEHKJ-UHFFFAOYSA-N-P49
     RDKit          3D

 13 13  0  0  0  0  0  0  0  0999 V2000
    5.5500   -9.3177   23.0584 C   0  0  0  0  0  0  0  0  0  0  0  0
    4.5673   -9.9708   23.6908 C   0  0  0  0  0  0  0  0  0  0  0  0
    4.2854   -9.5799   24.9550 F   0  0  0  0  0  0  0  0  0  0  0  0
    3.7766  -11.0848   23.0731 C   0  0  0  0  0  0  0  0  0  0  0  0
    3.3264  -12.0052   24.0729 N   0  0  0  0  0  0  0  0  0  0  0  0
    4.0019  -13.2514   24.6562 C   0  0  0  0  0  0  0  0  0  0  0  0
    4.9996  -13.7754   24.3646 O   0  0  0  0  0  0  0  0  0  0  0  0
    3.1098  -13.7962   25.7090 C   0  0  0  0  0  0  0  0  0  0  0  0
    1.8975  -13.1534   26.0197 N   0  0  0  0  0  0  0  0  0  0  0  0
    1.3052  -13.7939   27.0004 C   0  0  0  0  0  0  0  0  0  0  0  0
    2.0804  -15.2008   27.5756 S   0  0  0  0  0  0  0  0  0  0  0  0
    3.3521  -14.9440   26.4518 C   0  0  0  0  0  0  0  0  0  0  0  0
    4.4994  -15.8867   26.3893 C   0  0  0  0  0  0  0  0  0  0  0  0
  1  2  2  0
  2  3  1  0
  2  4  1  0
  4  5  1  0
  5  6  1  0
  6  7  2  0
  6  8  1  0
  8  9  1  0
  9 10  2  0
 10 11  1  0
 11 12  1  0
 12 13  1  0
 12  8  2  0
M  END
>  <inchikey>  (583) 
DBQDALMREGEHKJ-UHFFFAOYSA-N

>  <tags>  (583) 
fragmenstein_placed,CpKRS_FrAncestor_bulkdock_iter2

>  <ref_pdb>  (583) 
x0602b

>  <energy_score>  (583) 
-37.243238

>  <distance_score>  (583) 
0.429265

>  <HIPPO Pose ID>  (583) 
55654

>  <ref_mols>  (583) 
x0504b

>  <smiles>  (583) 
C=C(F)CNC(=O)c1ncsc1C

>  <HIPPO Compound ID>  (583) 
450771

>  <alias>  (583) 
DBQDALMREGEHKJ-UHFFFAOYSA-N-P49

>  <subsites>  (583) 


>  <placement_batch>  (583) 
CpKRS_FrAncestor_bulkdock_iter2

>  <name>  (583) 
DBQDALMREGEHKJ-UHFFFAOYSA-N-P49

$$$$
ZVJJPMBYEWXXKW-UHFFFAOYSA-N-P49
     RDKit          3D

 14 14  0  0  0  0  0  0  0  0999 V2000
    5.3113   -8.8393   22.6679 C   0  0  0  0  0  0  0  0  0  0  0  0
    5.0242   -9.9345   23.3810 C   0  0  0  0  0  0  0  0  0  0  0  0
    4.8888   -9.7779   24.7200 F   0  0  0  0  0  0  0  0  0  0  0  0
    4.8161  -11.2914   22.7709 C   0  0  0  0  0  0  0  0  0  0  0  0
    4.0051  -12.0686   23.6565 N   0  0  0  0  0  0  0  0  0  0  0  0
    4.3706  -13.2610   24.5614 C   0  0  0  0  0  0  0  0  0  0  0  0
    5.3718  -13.8468   24.6706 O   0  0  0  0  0  0  0  0  0  0  0  0
    3.2123  -13.6253   25.3874 C   0  0  0  0  0  0  0  0  0  0  0  0
    1.7590  -12.7096   25.3457 S   0  0  0  0  0  0  0  0  0  0  0  0
    1.0690  -13.7602   26.4725 C   0  0  0  0  0  0  0  0  0  0  0  0
   -0.7541  -13.5103   26.9771 Br  0  0  0  0  0  0  0  0  0  0  0  0
    1.8161  -14.7344   26.9219 N   0  0  0  0  0  0  0  0  0  0  0  0
    3.0666  -14.6660   26.3023 C   0  0  0  0  0  0  0  0  0  0  0  0
    4.0849  -15.6949   26.6567 C   0  0  0  0  0  0  0  0  0  0  0  0
  1  2  2  0
  2  3  1  0
  2  4  1  0
  4  5  1  0
  5  6  1  0
  6  7  2  0
  6  8  1  0
  8  9  1  0
  9 10  1  0
 10 11  1  0
 10 12  2  0
 12 13  1  0
 13 14  1  0
 13  8  2  0
M  END
>  <inchikey>  (584) 
ZVJJPMBYEWXXKW-UHFFFAOYSA-N

>  <tags>  (584) 
fragmenstein_placed,CpKRS_FrAncestor_bulkdock_iter2

>  <ref_pdb>  (584) 
x0602b

>  <energy_score>  (584) 
-50.611617

>  <distance_score>  (584) 
0.6659

>  <HIPPO Pose ID>  (584) 
55657

>  <ref_mols>  (584) 
x0504b

>  <smiles>  (584) 
C=C(F)CNC(=O)c1sc(Br)nc1C

>  <HIPPO Compound ID>  (584) 
450772

>  <alias>  (584) 
ZVJJPMBYEWXXKW-UHFFFAOYSA-N-P49

>  <subsites>  (584) 


>  <placement_batch>  (584) 
CpKRS_FrAncestor_bulkdock_iter2

>  <name>  (584) 
ZVJJPMBYEWXXKW-UHFFFAOYSA-N-P49

$$$$
ZLLFVKNAAPQFQR-UHFFFAOYSA-N-P48
     RDKit          3D

 17 17  0  0  0  0  0  0  0  0999 V2000
    4.6970   -9.7013   23.7407 C   0  0  0  0  0  0  0  0  0  0  0  0
    4.7782  -10.3954   22.5966 C   0  0  0  0  0  0  0  0  0  0  0  0
    5.0584   -9.6791   21.4824 F   0  0  0  0  0  0  0  0  0  0  0  0
    4.5817  -11.8754   22.4149 C   0  0  0  0  0  0  0  0  0  0  0  0
    3.9585  -12.4671   23.5627 N   0  0  0  0  0  0  0  0  0  0  0  0
    4.4776  -13.5293   24.5441 C   0  0  0  0  0  0  0  0  0  0  0  0
    5.5217  -14.0371   24.6229 O   0  0  0  0  0  0  0  0  0  0  0  0
    3.4236  -13.8875   25.5034 C   0  0  0  0  0  0  0  0  0  0  0  0
    1.8960  -13.1026   25.5469 S   0  0  0  0  0  0  0  0  0  0  0  0
    1.4120  -14.0777   26.8699 C   0  0  0  0  0  0  0  0  0  0  0  0
    0.0543  -13.9026   27.4745 C   0  0  0  0  0  0  0  0  0  0  0  0
   -0.7523  -14.9541   27.1743 F   0  0  0  0  0  0  0  0  0  0  0  0
   -0.6147  -12.8002   27.0308 F   0  0  0  0  0  0  0  0  0  0  0  0
    0.1314  -13.7854   28.8244 F   0  0  0  0  0  0  0  0  0  0  0  0
    2.3087  -14.9666   27.2555 N   0  0  0  0  0  0  0  0  0  0  0  0
    3.4655  -14.8505   26.5019 C   0  0  0  0  0  0  0  0  0  0  0  0
    4.5958  -15.7568   26.8326 C   0  0  0  0  0  0  0  0  0  0  0  0
  1  2  2  0
  2  3  1  0
  2  4  1  0
  4  5  1  0
  5  6  1  0
  6  7  2  0
  6  8  1  0
  8  9  1  0
  9 10  1  0
 10 11  1  0
 11 12  1  0
 11 13  1  0
 11 14  1  0
 10 15  2  0
 15 16  1  0
 16 17  1  0
 16  8  2  0
M  END
>  <inchikey>  (585) 
ZLLFVKNAAPQFQR-UHFFFAOYSA-N

>  <tags>  (585) 
fragmenstein_placed,CpKRS_FrAncestor_bulkdock_iter2

>  <ref_pdb>  (585) 
x0602b

>  <energy_score>  (585) 
-26.484166

>  <distance_score>  (585) 
0.668334

>  <HIPPO Pose ID>  (585) 
55662

>  <ref_mols>  (585) 
x0504a

>  <smiles>  (585) 
C=C(F)CNC(=O)c1sc(C(F)(F)F)nc1C

>  <HIPPO Compound ID>  (585) 
146495

>  <alias>  (585) 
ZLLFVKNAAPQFQR-UHFFFAOYSA-N-P48

>  <subsites>  (585) 


>  <placement_batch>  (585) 
CpKRS_FrAncestor_bulkdock_iter2

>  <name>  (585) 
ZLLFVKNAAPQFQR-UHFFFAOYSA-N-P48

$$$$
PYEQZQYXBUWWMY-UHFFFAOYSA-N-P48
     RDKit          3D

 14 14  0  0  0  0  0  0  0  0999 V2000
    5.0976   -9.6402   23.8545 C   0  0  0  0  0  0  0  0  0  0  0  0
    4.4417  -10.1952   22.6044 C   0  0  1  0  0  0  0  0  0  0  0  0
    5.0262   -9.6119   21.5231 F   0  0  0  0  0  0  0  0  0  0  0  0
    4.5404  -11.7116   22.4612 C   0  0  0  0  0  0  0  0  0  0  0  0
    3.8575  -12.3968   23.5266 N   0  0  0  0  0  0  0  0  0  0  0  0
    4.4127  -13.1346   24.7590 C   0  0  0  0  0  0  0  0  0  0  0  0
    5.5047  -13.2383   25.1466 O   0  0  0  0  0  0  0  0  0  0  0  0
    3.3028  -13.6754   25.5431 C   0  0  0  0  0  0  0  0  0  0  0  0
    1.7254  -12.9909   25.4473 S   0  0  0  0  0  0  0  0  0  0  0  0
    1.1917  -14.1063   26.5943 C   0  0  0  0  0  0  0  0  0  0  0  0
   -0.4713  -14.1356   26.9839 Cl  0  0  0  0  0  0  0  0  0  0  0  0
    2.0631  -14.9468   27.0802 N   0  0  0  0  0  0  0  0  0  0  0  0
    3.2931  -14.6968   26.4827 C   0  0  0  0  0  0  0  0  0  0  0  0
    4.6250  -15.6843   26.9050 Cl  0  0  0  0  0  0  0  0  0  0  0  0
  2  1  1  1
  2  3  1  0
  2  4  1  0
  4  5  1  0
  5  6  1  0
  6  7  2  0
  6  8  1  0
  8  9  1  0
  9 10  1  0
 10 11  1  0
 10 12  2  0
 12 13  1  0
 13 14  1  0
 13  8  2  0
M  END
>  <inchikey>  (586) 
PYEQZQYXBUWWMY-UHFFFAOYSA-N

>  <tags>  (586) 
fragmenstein_placed,CpKRS_FrAncestor_bulkdock_iter2

>  <ref_pdb>  (586) 
x0602b

>  <energy_score>  (586) 
-40.799028

>  <distance_score>  (586) 
0.702061

>  <HIPPO Pose ID>  (586) 
55665

>  <ref_mols>  (586) 
x0504a

>  <smiles>  (586) 
CC(F)CNC(=O)c1sc(Cl)nc1Cl

>  <HIPPO Compound ID>  (586) 
450773

>  <alias>  (586) 
PYEQZQYXBUWWMY-UHFFFAOYSA-N-P48

>  <subsites>  (586) 


>  <placement_batch>  (586) 
CpKRS_FrAncestor_bulkdock_iter2

>  <name>  (586) 
PYEQZQYXBUWWMY-UHFFFAOYSA-N-P48

$$$$
YAWFKQMZIZNKDU-UHFFFAOYSA-N-P49
     RDKit          3D

 14 14  0  0  0  0  0  0  0  0999 V2000
    5.3936   -8.8113   22.6789 C   0  0  0  0  0  0  0  0  0  0  0  0
    4.9870   -9.8383   23.4333 C   0  0  0  0  0  0  0  0  0  0  0  0
    4.7889   -9.5956   24.7519 F   0  0  0  0  0  0  0  0  0  0  0  0
    4.7231  -11.2110   22.8895 C   0  0  0  0  0  0  0  0  0  0  0  0
    4.0203  -11.9610   23.8854 N   0  0  0  0  0  0  0  0  0  0  0  0
    4.3316  -13.3323   24.5082 C   0  0  0  0  0  0  0  0  0  0  0  0
    5.2486  -14.0339   24.3663 O   0  0  0  0  0  0  0  0  0  0  0  0
    3.2642  -13.7015   25.4419 C   0  0  0  0  0  0  0  0  0  0  0  0
    1.7679  -12.8471   25.4898 S   0  0  0  0  0  0  0  0  0  0  0  0
    1.2523  -13.8609   26.7298 C   0  0  0  0  0  0  0  0  0  0  0  0
   -0.3124  -13.6212   27.3739 Cl  0  0  0  0  0  0  0  0  0  0  0  0
    2.0533  -14.8073   27.1284 N   0  0  0  0  0  0  0  0  0  0  0  0
    3.2280  -14.7205   26.3869 C   0  0  0  0  0  0  0  0  0  0  0  0
    4.4795  -15.8447   26.7082 Cl  0  0  0  0  0  0  0  0  0  0  0  0
  1  2  2  0
  2  3  1  0
  2  4  1  0
  4  5  1  0
  5  6  1  0
  6  7  2  0
  6  8  1  0
  8  9  1  0
  9 10  1  0
 10 11  1  0
 10 12  2  0
 12 13  1  0
 13 14  1  0
 13  8  2  0
M  END
>  <inchikey>  (587) 
YAWFKQMZIZNKDU-UHFFFAOYSA-N

>  <tags>  (587) 
fragmenstein_placed,CpKRS_FrAncestor_bulkdock_iter2

>  <ref_pdb>  (587) 
x0602b

>  <energy_score>  (587) 
-38.402443

>  <distance_score>  (587) 
0.552882

>  <HIPPO Pose ID>  (587) 
55669

>  <ref_mols>  (587) 
x0504b

>  <smiles>  (587) 
C=C(F)CNC(=O)c1sc(Cl)nc1Cl

>  <HIPPO Compound ID>  (587) 
450774

>  <alias>  (587) 
YAWFKQMZIZNKDU-UHFFFAOYSA-N-P49

>  <subsites>  (587) 


>  <placement_batch>  (587) 
CpKRS_FrAncestor_bulkdock_iter2

>  <name>  (587) 
YAWFKQMZIZNKDU-UHFFFAOYSA-N-P49

$$$$
ZBJAFOMJLIPNKR-UHFFFAOYSA-N-P49
     RDKit          3D

 14 14  0  0  0  0  0  0  0  0999 V2000
    5.3519   -8.8941   22.7074 C   0  0  0  0  0  0  0  0  0  0  0  0
    4.9656   -9.9597   23.4189 C   0  0  0  0  0  0  0  0  0  0  0  0
    4.7634   -9.7732   24.7453 F   0  0  0  0  0  0  0  0  0  0  0  0
    4.7258  -11.3146   22.8169 C   0  0  0  0  0  0  0  0  0  0  0  0
    3.9557  -12.0997   23.7339 N   0  0  0  0  0  0  0  0  0  0  0  0
    4.3415  -13.3436   24.5544 C   0  0  0  0  0  0  0  0  0  0  0  0
    5.3222  -13.9720   24.5563 O   0  0  0  0  0  0  0  0  0  0  0  0
    3.2404  -13.7098   25.4554 C   0  0  0  0  0  0  0  0  0  0  0  0
    1.7666  -12.8208   25.5081 S   0  0  0  0  0  0  0  0  0  0  0  0
    1.2088  -13.8489   26.7188 C   0  0  0  0  0  0  0  0  0  0  0  0
   -0.3602  -13.5897   27.3455 Cl  0  0  0  0  0  0  0  0  0  0  0  0
    1.9852  -14.8227   27.1059 N   0  0  0  0  0  0  0  0  0  0  0  0
    3.1740  -14.7508   26.3809 C   0  0  0  0  0  0  0  0  0  0  0  0
    4.2245  -15.7683   26.6607 C   0  0  0  0  0  0  0  0  0  0  0  0
  1  2  2  0
  2  3  1  0
  2  4  1  0
  4  5  1  0
  5  6  1  0
  6  7  2  0
  6  8  1  0
  8  9  1  0
  9 10  1  0
 10 11  1  0
 10 12  2  0
 12 13  1  0
 13 14  1  0
 13  8  2  0
M  END
>  <inchikey>  (588) 
ZBJAFOMJLIPNKR-UHFFFAOYSA-N

>  <tags>  (588) 
fragmenstein_placed,CpKRS_FrAncestor_bulkdock_iter2

>  <ref_pdb>  (588) 
x0602b

>  <energy_score>  (588) 
-57.333262

>  <distance_score>  (588) 
0.552974

>  <HIPPO Pose ID>  (588) 
55672

>  <ref_mols>  (588) 
x0504b

>  <smiles>  (588) 
C=C(F)CNC(=O)c1sc(Cl)nc1C

>  <HIPPO Compound ID>  (588) 
450775

>  <alias>  (588) 
ZBJAFOMJLIPNKR-UHFFFAOYSA-N-P49

>  <subsites>  (588) 


>  <placement_batch>  (588) 
CpKRS_FrAncestor_bulkdock_iter2

>  <name>  (588) 
ZBJAFOMJLIPNKR-UHFFFAOYSA-N-P49

$$$$
FJFSBSYFPMWMLE-UHFFFAOYSA-N-P47
     RDKit          3D

 17 17  0  0  0  0  0  0  0  0999 V2000
    3.9705    8.7757   40.4465 C   0  0  0  0  0  0  0  0  0  0  0  0
    3.5645    8.1329   41.5452 C   0  0  0  0  0  0  0  0  0  0  0  0
    4.4330    8.0697   42.5806 F   0  0  0  0  0  0  0  0  0  0  0  0
    2.2442    7.4445   41.6698 C   0  0  0  0  0  0  0  0  0  0  0  0
    2.3529    6.4873   42.7265 N   0  0  0  0  0  0  0  0  0  0  0  0
    3.1754    5.1950   42.8207 C   0  0  0  0  0  0  0  0  0  0  0  0
    3.8358    4.6624   42.0257 O   0  0  0  0  0  0  0  0  0  0  0  0
    3.0788    4.6304   44.1657 C   0  0  0  0  0  0  0  0  0  0  0  0
    2.2593    5.4442   45.4283 S   0  0  0  0  0  0  0  0  0  0  0  0
    2.5474    4.1313   46.4649 C   0  0  0  0  0  0  0  0  0  0  0  0
    1.8809    4.1046   47.7772 C   0  0  0  0  0  0  0  0  0  0  0  0
    3.3080    3.1741   45.9876 N   0  0  0  0  0  0  0  0  0  0  0  0
    3.6162    3.4392   44.6443 C   0  0  0  0  0  0  0  0  0  0  0  0
    4.3993    2.4400   43.8398 C   0  0  0  0  0  0  0  0  0  0  0  0
    5.5386    2.9551   43.3153 F   0  0  0  0  0  0  0  0  0  0  0  0
    3.6541    1.9284   42.8306 F   0  0  0  0  0  0  0  0  0  0  0  0
    4.7906    1.3703   44.5906 F   0  0  0  0  0  0  0  0  0  0  0  0
  1  2  2  0
  2  3  1  0
  2  4  1  0
  4  5  1  0
  5  6  1  0
  6  7  2  0
  6  8  1  0
  8  9  1  0
  9 10  1  0
 10 11  1  0
 10 12  2  0
 12 13  1  0
 13 14  1  0
 14 15  1  0
 14 16  1  0
 14 17  1  0
 13  8  2  0
M  END
>  <inchikey>  (589) 
FJFSBSYFPMWMLE-UHFFFAOYSA-N

>  <tags>  (589) 
fragmenstein_placed,CpKRS_FrAncestor_bulkdock_iter2

>  <ref_pdb>  (589) 
x0602b

>  <energy_score>  (589) 
-39.084957

>  <distance_score>  (589) 
0.686592

>  <HIPPO Pose ID>  (589) 
55676

>  <ref_mols>  (589) 
x0504c

>  <smiles>  (589) 
C=C(F)CNC(=O)c1sc(C)nc1C(F)(F)F

>  <HIPPO Compound ID>  (589) 
146504

>  <alias>  (589) 
FJFSBSYFPMWMLE-UHFFFAOYSA-N-P47

>  <subsites>  (589) 


>  <placement_batch>  (589) 
CpKRS_FrAncestor_bulkdock_iter2

>  <name>  (589) 
FJFSBSYFPMWMLE-UHFFFAOYSA-N-P47

$$$$
TZYZQKWIENPIKR-UHFFFAOYSA-N-P49
     RDKit          3D

 14 14  0  0  0  0  0  0  0  0999 V2000
    5.5372   -8.8721   22.8323 C   0  0  0  0  0  0  0  0  0  0  0  0
    4.9222   -9.8887   23.4473 C   0  0  0  0  0  0  0  0  0  0  0  0
    4.5467   -9.6950   24.7344 F   0  0  0  0  0  0  0  0  0  0  0  0
    4.6314  -11.2006   22.7792 C   0  0  0  0  0  0  0  0  0  0  0  0
    3.9947  -12.0725   23.7184 N   0  0  0  0  0  0  0  0  0  0  0  0
    4.4580  -13.4128   24.3089 C   0  0  0  0  0  0  0  0  0  0  0  0
    5.3954  -14.0592   24.0682 O   0  0  0  0  0  0  0  0  0  0  0  0
    3.5169  -13.8571   25.3403 C   0  0  0  0  0  0  0  0  0  0  0  0
    1.9697  -13.1406   25.5552 S   0  0  0  0  0  0  0  0  0  0  0  0
    1.6688  -14.1977   26.8570 C   0  0  0  0  0  0  0  0  0  0  0  0
    0.3945  -14.1202   27.5862 C   0  0  0  0  0  0  0  0  0  0  0  0
    2.6056  -15.0706   27.1231 N   0  0  0  0  0  0  0  0  0  0  0  0
    3.6801  -14.8716   26.2744 C   0  0  0  0  0  0  0  0  0  0  0  0
    4.8666  -15.7394   26.4668 C   0  0  0  0  0  0  0  0  0  0  0  0
  1  2  2  0
  2  3  1  0
  2  4  1  0
  4  5  1  0
  5  6  1  0
  6  7  2  0
  6  8  1  0
  8  9  1  0
  9 10  1  0
 10 11  1  0
 10 12  2  0
 12 13  1  0
 13 14  1  0
 13  8  2  0
M  END
>  <inchikey>  (590) 
TZYZQKWIENPIKR-UHFFFAOYSA-N

>  <tags>  (590) 
fragmenstein_placed,CpKRS_FrAncestor_bulkdock_iter2

>  <ref_pdb>  (590) 
x0602b

>  <energy_score>  (590) 
-45.243939

>  <distance_score>  (590) 
0.615409

>  <HIPPO Pose ID>  (590) 
55678

>  <ref_mols>  (590) 
x0504b

>  <smiles>  (590) 
C=C(F)CNC(=O)c1sc(C)nc1C

>  <HIPPO Compound ID>  (590) 
450776

>  <alias>  (590) 
TZYZQKWIENPIKR-UHFFFAOYSA-N-P49

>  <subsites>  (590) 


>  <placement_batch>  (590) 
CpKRS_FrAncestor_bulkdock_iter2

>  <name>  (590) 
TZYZQKWIENPIKR-UHFFFAOYSA-N-P49

$$$$
BEMKSYSBHPPENB-UHFFFAOYSA-N-P49
     RDKit          3D

 13 13  0  0  0  0  0  0  0  0999 V2000
    5.3238   -8.7579   22.6721 C   0  0  0  0  0  0  0  0  0  0  0  0
    4.5075   -9.6598   23.5755 C   0  0  2  0  0  0  0  0  0  0  0  0
    5.1240   -9.7208   24.7877 F   0  0  0  0  0  0  0  0  0  0  0  0
    4.3621  -11.0648   22.9950 C   0  0  0  0  0  0  0  0  0  0  0  0
    3.6520  -11.9399   23.8921 N   0  0  0  0  0  0  0  0  0  0  0  0
    4.1352  -13.1688   24.6793 C   0  0  0  0  0  0  0  0  0  0  0  0
    5.1625  -13.7145   24.6686 O   0  0  0  0  0  0  0  0  0  0  0  0
    3.0745  -13.6338   25.5874 C   0  0  0  0  0  0  0  0  0  0  0  0
    1.5863  -12.7816   25.7959 S   0  0  0  0  0  0  0  0  0  0  0  0
    1.1255  -13.8860   27.0093 C   0  0  0  0  0  0  0  0  0  0  0  0
    1.9409  -14.8835   27.2324 N   0  0  0  0  0  0  0  0  0  0  0  0
    3.0604  -14.7369   26.4271 C   0  0  0  0  0  0  0  0  0  0  0  0
    4.4289  -16.0404   26.5485 Br  0  0  0  0  0  0  0  0  0  0  0  0
  2  1  1  6
  2  3  1  0
  2  4  1  0
  4  5  1  0
  5  6  1  0
  6  7  2  0
  6  8  1  0
  8  9  1  0
  9 10  1  0
 10 11  2  0
 11 12  1  0
 12 13  1  0
 12  8  2  0
M  END
>  <inchikey>  (591) 
BEMKSYSBHPPENB-UHFFFAOYSA-N

>  <tags>  (591) 
fragmenstein_placed,CpKRS_FrAncestor_bulkdock_iter2

>  <ref_pdb>  (591) 
x0602b

>  <energy_score>  (591) 
-26.322319

>  <distance_score>  (591) 
0.462997

>  <HIPPO Pose ID>  (591) 
55681

>  <ref_mols>  (591) 
x0504b

>  <smiles>  (591) 
CC(F)CNC(=O)c1scnc1Br

>  <HIPPO Compound ID>  (591) 
450777

>  <alias>  (591) 
BEMKSYSBHPPENB-UHFFFAOYSA-N-P49

>  <subsites>  (591) 


>  <placement_batch>  (591) 
CpKRS_FrAncestor_bulkdock_iter2

>  <name>  (591) 
BEMKSYSBHPPENB-UHFFFAOYSA-N-P49

$$$$
DTFYEIPLASSLHA-UHFFFAOYSA-N-P49
     RDKit          3D

 13 13  0  0  0  0  0  0  0  0999 V2000
    5.6167   -9.2039   22.9986 C   0  0  0  0  0  0  0  0  0  0  0  0
    4.6188   -9.7755   23.6818 C   0  0  0  0  0  0  0  0  0  0  0  0
    4.4210   -9.3569   24.9540 F   0  0  0  0  0  0  0  0  0  0  0  0
    3.7256  -10.8404   23.1252 C   0  0  0  0  0  0  0  0  0  0  0  0
    3.3275  -11.7227   24.1802 N   0  0  0  0  0  0  0  0  0  0  0  0
    3.7206  -13.1805   24.4640 C   0  0  0  0  0  0  0  0  0  0  0  0
    4.4889  -13.8715   23.9300 O   0  0  0  0  0  0  0  0  0  0  0  0
    2.9548  -13.6875   25.6074 C   0  0  0  0  0  0  0  0  0  0  0  0
    1.4406  -13.0010   26.0756 S   0  0  0  0  0  0  0  0  0  0  0  0
    1.3386  -14.1199   27.3600 C   0  0  0  0  0  0  0  0  0  0  0  0
    2.3034  -14.9988   27.4463 N   0  0  0  0  0  0  0  0  0  0  0  0
    3.2321  -14.7509   26.4497 C   0  0  0  0  0  0  0  0  0  0  0  0
    4.7762  -15.8455   26.3652 Br  0  0  0  0  0  0  0  0  0  0  0  0
  1  2  2  0
  2  3  1  0
  2  4  1  0
  4  5  1  0
  5  6  1  0
  6  7  2  0
  6  8  1  0
  8  9  1  0
  9 10  1  0
 10 11  2  0
 11 12  1  0
 12 13  1  0
 12  8  2  0
M  END
>  <inchikey>  (592) 
DTFYEIPLASSLHA-UHFFFAOYSA-N

>  <tags>  (592) 
fragmenstein_placed,CpKRS_FrAncestor_bulkdock_iter2

>  <ref_pdb>  (592) 
x0602b

>  <energy_score>  (592) 
-45.99617

>  <distance_score>  (592) 
0.485262

>  <HIPPO Pose ID>  (592) 
55684

>  <ref_mols>  (592) 
x0504b

>  <smiles>  (592) 
C=C(F)CNC(=O)c1scnc1Br

>  <HIPPO Compound ID>  (592) 
450778

>  <alias>  (592) 
DTFYEIPLASSLHA-UHFFFAOYSA-N-P49

>  <subsites>  (592) 


>  <placement_batch>  (592) 
CpKRS_FrAncestor_bulkdock_iter2

>  <name>  (592) 
DTFYEIPLASSLHA-UHFFFAOYSA-N-P49

$$$$
WXKQNKLUBLIABR-UHFFFAOYSA-N-P48
     RDKit          3D

 16 16  0  0  0  0  0  0  0  0999 V2000
    4.5180   -9.5237   23.7444 C   0  0  0  0  0  0  0  0  0  0  0  0
    4.6253  -10.2028   22.5938 C   0  0  0  0  0  0  0  0  0  0  0  0
    5.0206   -9.4887   21.5137 F   0  0  0  0  0  0  0  0  0  0  0  0
    4.3589  -11.6631   22.3664 C   0  0  0  0  0  0  0  0  0  0  0  0
    3.6891  -12.2703   23.4754 N   0  0  0  0  0  0  0  0  0  0  0  0
    4.2493  -13.0145   24.6887 C   0  0  0  0  0  0  0  0  0  0  0  0
    5.3480  -13.1886   25.0238 O   0  0  0  0  0  0  0  0  0  0  0  0
    3.1497  -13.5571   25.4891 C   0  0  0  0  0  0  0  0  0  0  0  0
    1.7183  -12.6621   25.7744 S   0  0  0  0  0  0  0  0  0  0  0  0
    1.1867  -13.8528   26.8757 C   0  0  0  0  0  0  0  0  0  0  0  0
    1.9365  -14.9246   26.9554 N   0  0  0  0  0  0  0  0  0  0  0  0
    3.0433  -14.7948   26.1138 C   0  0  0  0  0  0  0  0  0  0  0  0
    3.9331  -16.0057   25.9138 C   0  0  0  0  0  0  0  0  0  0  0  0
    3.2186  -17.2740   26.4184 C   0  0  0  0  0  0  0  0  0  0  0  0
    5.2613  -15.8545   26.6552 C   0  0  0  0  0  0  0  0  0  0  0  0
    4.1938  -16.2539   24.4115 C   0  0  0  0  0  0  0  0  0  0  0  0
  1  2  2  0
  2  3  1  0
  2  4  1  0
  4  5  1  0
  5  6  1  0
  6  7  2  0
  6  8  1  0
  8  9  1  0
  9 10  1  0
 10 11  2  0
 11 12  1  0
 12 13  1  0
 13 14  1  0
 13 15  1  0
 13 16  1  0
 12  8  2  0
M  END
>  <inchikey>  (593) 
WXKQNKLUBLIABR-UHFFFAOYSA-N

>  <tags>  (593) 
fragmenstein_placed,CpKRS_FrAncestor_bulkdock_iter2

>  <ref_pdb>  (593) 
x0602b

>  <energy_score>  (593) 
-52.787696

>  <distance_score>  (593) 
0.672526

>  <HIPPO Pose ID>  (593) 
55686

>  <ref_mols>  (593) 
x0504a

>  <smiles>  (593) 
C=C(F)CNC(=O)c1scnc1C(C)(C)C

>  <HIPPO Compound ID>  (593) 
123166

>  <alias>  (593) 
WXKQNKLUBLIABR-UHFFFAOYSA-N-P48

>  <subsites>  (593) 


>  <placement_batch>  (593) 
CpKRS_FrAncestor_bulkdock_iter2

>  <name>  (593) 
WXKQNKLUBLIABR-UHFFFAOYSA-N-P48

$$$$
JFMXYHNEKSJFMU-UHFFFAOYSA-N-P49
     RDKit          3D

 16 16  0  0  0  0  0  0  0  0999 V2000
    5.6017   -8.9313   22.7184 C   0  0  0  0  0  0  0  0  0  0  0  0
    4.9762   -9.9301   23.6703 C   0  0  1  0  0  0  0  0  0  0  0  0
    4.5681   -9.2494   24.7810 F   0  0  0  0  0  0  0  0  0  0  0  0
    3.7659  -10.6211   23.0460 C   0  0  0  0  0  0  0  0  0  0  0  0
    3.1495  -11.5339   23.9705 N   0  0  0  0  0  0  0  0  0  0  0  0
    3.6799  -12.8355   24.5920 C   0  0  0  0  0  0  0  0  0  0  0  0
    4.6689  -13.4159   24.3958 O   0  0  0  0  0  0  0  0  0  0  0  0
    2.7132  -13.3421   25.5919 C   0  0  0  0  0  0  0  0  0  0  0  0
    1.3278  -12.4037   26.0391 S   0  0  0  0  0  0  0  0  0  0  0  0
    0.9381  -13.5329   27.2402 C   0  0  0  0  0  0  0  0  0  0  0  0
    1.6693  -14.6117   27.2729 N   0  0  0  0  0  0  0  0  0  0  0  0
    2.6903  -14.5389   26.3175 C   0  0  0  0  0  0  0  0  0  0  0  0
    3.5512  -15.7851   26.1655 C   0  0  0  0  0  0  0  0  0  0  0  0
    5.0078  -15.5736   26.5946 C   0  0  0  0  0  0  0  0  0  0  0  0
    2.9836  -16.9257   27.0405 C   0  0  0  0  0  0  0  0  0  0  0  0
    3.4737  -16.3073   24.7222 C   0  0  0  0  0  0  0  0  0  0  0  0
  2  1  1  6
  2  3  1  0
  2  4  1  0
  4  5  1  0
  5  6  1  0
  6  7  2  0
  6  8  1  0
  8  9  1  0
  9 10  1  0
 10 11  2  0
 11 12  1  0
 12 13  1  0
 13 14  1  0
 13 15  1  0
 13 16  1  0
 12  8  2  0
M  END
>  <inchikey>  (594) 
JFMXYHNEKSJFMU-UHFFFAOYSA-N

>  <tags>  (594) 
fragmenstein_placed,CpKRS_FrAncestor_bulkdock_iter2

>  <ref_pdb>  (594) 
x0602b

>  <energy_score>  (594) 
-22.342471

>  <distance_score>  (594) 
0.765908

>  <HIPPO Pose ID>  (594) 
55690

>  <ref_mols>  (594) 
x0504b

>  <smiles>  (594) 
CC(F)CNC(=O)c1scnc1C(C)(C)C

>  <HIPPO Compound ID>  (594) 
138183

>  <alias>  (594) 
JFMXYHNEKSJFMU-UHFFFAOYSA-N-P49

>  <subsites>  (594) 


>  <placement_batch>  (594) 
CpKRS_FrAncestor_bulkdock_iter2

>  <name>  (594) 
JFMXYHNEKSJFMU-UHFFFAOYSA-N-P49

$$$$
MYQLVRNLEYFDQN-UHFFFAOYSA-N-P47
     RDKit          3D

 16 16  0  0  0  0  0  0  0  0999 V2000
    3.4984    8.8854   40.7212 C   0  0  0  0  0  0  0  0  0  0  0  0
    3.5480    7.7177   41.6834 C   0  0  1  0  0  0  0  0  0  0  0  0
    4.4864    7.9929   42.6377 F   0  0  0  0  0  0  0  0  0  0  0  0
    2.2090    7.4873   42.3786 C   0  0  0  0  0  0  0  0  0  0  0  0
    2.3174    6.4699   43.3934 N   0  0  0  0  0  0  0  0  0  0  0  0
    2.9274    5.0670   43.3344 C   0  0  0  0  0  0  0  0  0  0  0  0
    3.3718    4.4766   42.4385 O   0  0  0  0  0  0  0  0  0  0  0  0
    2.9540    4.4499   44.6610 C   0  0  0  0  0  0  0  0  0  0  0  0
    2.1837    5.1356   46.0319 S   0  0  0  0  0  0  0  0  0  0  0  0
    2.6997    3.8164   46.9821 C   0  0  0  0  0  0  0  0  0  0  0  0
    3.4224    2.9096   46.3656 N   0  0  0  0  0  0  0  0  0  0  0  0
    3.5746    3.2541   45.0120 C   0  0  0  0  0  0  0  0  0  0  0  0
    4.3415    2.3531   44.0721 C   0  0  0  0  0  0  0  0  0  0  0  0
    5.4140    2.9770   43.5235 F   0  0  0  0  0  0  0  0  0  0  0  0
    4.8350    1.2540   44.7095 F   0  0  0  0  0  0  0  0  0  0  0  0
    3.5668    1.8806   43.0645 F   0  0  0  0  0  0  0  0  0  0  0  0
  2  1  1  6
  2  3  1  0
  2  4  1  0
  4  5  1  0
  5  6  1  0
  6  7  2  0
  6  8  1  0
  8  9  1  0
  9 10  1  0
 10 11  2  0
 11 12  1  0
 12 13  1  0
 13 14  1  0
 13 15  1  0
 13 16  1  0
 12  8  2  0
M  END
>  <inchikey>  (595) 
MYQLVRNLEYFDQN-UHFFFAOYSA-N

>  <tags>  (595) 
fragmenstein_placed,CpKRS_FrAncestor_bulkdock_iter2

>  <ref_pdb>  (595) 
x0602b

>  <energy_score>  (595) 
-56.134377

>  <distance_score>  (595) 
0.309517

>  <HIPPO Pose ID>  (595) 
55694

>  <ref_mols>  (595) 
x0504c

>  <smiles>  (595) 
CC(F)CNC(=O)c1scnc1C(F)(F)F

>  <HIPPO Compound ID>  (595) 
122546

>  <alias>  (595) 
MYQLVRNLEYFDQN-UHFFFAOYSA-N-P47

>  <subsites>  (595) 


>  <placement_batch>  (595) 
CpKRS_FrAncestor_bulkdock_iter2

>  <name>  (595) 
MYQLVRNLEYFDQN-UHFFFAOYSA-N-P47

$$$$
KZNKIEISAZTAOO-UHFFFAOYSA-N-P47
     RDKit          3D

 16 16  0  0  0  0  0  0  0  0999 V2000
    3.6443    8.4073   40.5925 C   0  0  0  0  0  0  0  0  0  0  0  0
    3.3793    7.9492   41.8206 C   0  0  0  0  0  0  0  0  0  0  0  0
    4.4034    7.9219   42.7014 F   0  0  0  0  0  0  0  0  0  0  0  0
    2.0456    7.4305   42.2564 C   0  0  0  0  0  0  0  0  0  0  0  0
    2.2375    6.4538   43.2907 N   0  0  0  0  0  0  0  0  0  0  0  0
    2.9345    5.0909   43.2552 C   0  0  0  0  0  0  0  0  0  0  0  0
    3.3985    4.5054   42.3657 O   0  0  0  0  0  0  0  0  0  0  0  0
    2.9786    4.4856   44.5902 C   0  0  0  0  0  0  0  0  0  0  0  0
    2.2183    5.1796   45.9642 S   0  0  0  0  0  0  0  0  0  0  0  0
    2.7282    3.8595   46.9176 C   0  0  0  0  0  0  0  0  0  0  0  0
    3.4474    2.9494   46.3023 N   0  0  0  0  0  0  0  0  0  0  0  0
    3.5975    3.2896   44.9468 C   0  0  0  0  0  0  0  0  0  0  0  0
    4.3530    2.3762   44.0118 C   0  0  0  0  0  0  0  0  0  0  0  0
    5.4328    2.9821   43.4553 F   0  0  0  0  0  0  0  0  0  0  0  0
    4.8402    1.2771   44.6564 F   0  0  0  0  0  0  0  0  0  0  0  0
    3.5715    1.9011   43.0118 F   0  0  0  0  0  0  0  0  0  0  0  0
  1  2  2  0
  2  3  1  0
  2  4  1  0
  4  5  1  0
  5  6  1  0
  6  7  2  0
  6  8  1  0
  8  9  1  0
  9 10  1  0
 10 11  2  0
 11 12  1  0
 12 13  1  0
 13 14  1  0
 13 15  1  0
 13 16  1  0
 12  8  2  0
M  END
>  <inchikey>  (596) 
KZNKIEISAZTAOO-UHFFFAOYSA-N

>  <tags>  (596) 
fragmenstein_placed,CpKRS_FrAncestor_bulkdock_iter2

>  <ref_pdb>  (596) 
x0602b

>  <energy_score>  (596) 
-30.108229

>  <distance_score>  (596) 
0.353638

>  <HIPPO Pose ID>  (596) 
55697

>  <ref_mols>  (596) 
x0504c

>  <smiles>  (596) 
C=C(F)CNC(=O)c1scnc1C(F)(F)F

>  <HIPPO Compound ID>  (596) 
123169

>  <alias>  (596) 
KZNKIEISAZTAOO-UHFFFAOYSA-N-P47

>  <subsites>  (596) 


>  <placement_batch>  (596) 
CpKRS_FrAncestor_bulkdock_iter2

>  <name>  (596) 
KZNKIEISAZTAOO-UHFFFAOYSA-N-P47

$$$$
NBELMMGRTWFIIT-UHFFFAOYSA-N-P48
     RDKit          3D

 17 17  0  0  0  0  0  0  0  0999 V2000
    5.1272   -9.4252   21.5859 C   0  0  0  0  0  0  0  0  0  0  0  0
    4.2822   -9.9410   22.7520 C   0  0  1  0  0  0  0  0  0  0  0  0
    2.9724   -9.6027   22.4844 F   0  0  0  0  0  0  0  0  0  0  0  0
    4.3913  -11.4649   22.8074 C   0  0  0  0  0  0  0  0  0  0  0  0
    3.7269  -12.1397   23.8918 N   0  0  0  0  0  0  0  0  0  0  0  0
    4.2684  -13.1468   24.9262 C   0  0  0  0  0  0  0  0  0  0  0  0
    5.3524  -13.5288   25.1104 O   0  0  0  0  0  0  0  0  0  0  0  0
    3.1781  -13.6600   25.7701 C   0  0  0  0  0  0  0  0  0  0  0  0
    1.5941  -12.9846   25.7710 S   0  0  0  0  0  0  0  0  0  0  0  0
    1.1278  -14.0654   27.0090 C   0  0  0  0  0  0  0  0  0  0  0  0
    2.0353  -14.9322   27.3837 N   0  0  0  0  0  0  0  0  0  0  0  0
    3.2120  -14.7089   26.6802 C   0  0  0  0  0  0  0  0  0  0  0  0
    4.5414  -15.7430   26.9910 Cl  0  0  0  0  0  0  0  0  0  0  0  0
    4.6819   -9.2282   24.0309 C   0  0  0  0  0  0  0  0  0  0  0  0
    5.9513   -9.4744   24.4002 F   0  0  0  0  0  0  0  0  0  0  0  0
    4.5692   -7.8838   23.8564 F   0  0  0  0  0  0  0  0  0  0  0  0
    3.8603   -9.5436   25.0544 F   0  0  0  0  0  0  0  0  0  0  0  0
  2  1  1  6
  2  3  1  0
  2  4  1  0
  4  5  1  0
  5  6  1  0
  6  7  2  0
  6  8  1  0
  8  9  1  0
  9 10  1  0
 10 11  2  0
 11 12  1  0
 12 13  1  0
  2 14  1  0
 14 15  1  0
 14 16  1  0
 14 17  1  0
 12  8  2  0
M  END
>  <inchikey>  (597) 
NBELMMGRTWFIIT-UHFFFAOYSA-N

>  <tags>  (597) 
fragmenstein_placed,CpKRS_FrAncestor_bulkdock_iter2

>  <ref_pdb>  (597) 
x0602b

>  <energy_score>  (597) 
-39.638113

>  <distance_score>  (597) 
0.43508

>  <HIPPO Pose ID>  (597) 
55698

>  <ref_mols>  (597) 
x0504a

>  <smiles>  (597) 
CC(F)(CNC(=O)c1scnc1Cl)C(F)(F)F

>  <HIPPO Compound ID>  (597) 
147582

>  <alias>  (597) 
NBELMMGRTWFIIT-UHFFFAOYSA-N-P48

>  <subsites>  (597) 


>  <placement_batch>  (597) 
CpKRS_FrAncestor_bulkdock_iter2

>  <name>  (597) 
NBELMMGRTWFIIT-UHFFFAOYSA-N-P48

$$$$
IEWXNKAQHAYDEU-UHFFFAOYSA-N-P49
     RDKit          3D

 13 13  0  0  0  0  0  0  0  0999 V2000
    5.5584   -9.0238   22.8651 C   0  0  0  0  0  0  0  0  0  0  0  0
    4.8024   -9.8887   23.5510 C   0  0  0  0  0  0  0  0  0  0  0  0
    4.4324   -9.5286   24.8033 F   0  0  0  0  0  0  0  0  0  0  0  0
    4.3634  -11.2148   23.0068 C   0  0  0  0  0  0  0  0  0  0  0  0
    3.7884  -11.9925   24.0637 N   0  0  0  0  0  0  0  0  0  0  0  0
    4.0845  -13.4292   24.5205 C   0  0  0  0  0  0  0  0  0  0  0  0
    4.8949  -14.1823   24.1614 O   0  0  0  0  0  0  0  0  0  0  0  0
    3.1595  -13.8123   25.5923 C   0  0  0  0  0  0  0  0  0  0  0  0
    1.6642  -12.9955   25.8622 S   0  0  0  0  0  0  0  0  0  0  0  0
    1.3494  -14.0253   27.1842 C   0  0  0  0  0  0  0  0  0  0  0  0
    2.2311  -14.9635   27.4149 N   0  0  0  0  0  0  0  0  0  0  0  0
    3.2783  -14.8461   26.5089 C   0  0  0  0  0  0  0  0  0  0  0  0
    4.5878  -15.9417   26.6268 Cl  0  0  0  0  0  0  0  0  0  0  0  0
  1  2  2  0
  2  3  1  0
  2  4  1  0
  4  5  1  0
  5  6  1  0
  6  7  2  0
  6  8  1  0
  8  9  1  0
  9 10  1  0
 10 11  2  0
 11 12  1  0
 12 13  1  0
 12  8  2  0
M  END
>  <inchikey>  (598) 
IEWXNKAQHAYDEU-UHFFFAOYSA-N

>  <tags>  (598) 
fragmenstein_placed,CpKRS_FrAncestor_bulkdock_iter2

>  <ref_pdb>  (598) 
x0602b

>  <energy_score>  (598) 
-31.382436

>  <distance_score>  (598) 
0.431655

>  <HIPPO Pose ID>  (598) 
55702

>  <ref_mols>  (598) 
x0504b

>  <smiles>  (598) 
C=C(F)CNC(=O)c1scnc1Cl

>  <HIPPO Compound ID>  (598) 
450779

>  <alias>  (598) 
IEWXNKAQHAYDEU-UHFFFAOYSA-N-P49

>  <subsites>  (598) 


>  <placement_batch>  (598) 
CpKRS_FrAncestor_bulkdock_iter2

>  <name>  (598) 
IEWXNKAQHAYDEU-UHFFFAOYSA-N-P49

$$$$
WHZRGCRENJLWGV-UHFFFAOYSA-N-P47
     RDKit          3D

 13 13  0  0  0  0  0  0  0  0999 V2000
    3.5350    9.0905   40.8395 C   0  0  0  0  0  0  0  0  0  0  0  0
    3.2617    8.3839   42.1512 C   0  0  2  0  0  0  0  0  0  0  0  0
    4.4334    7.8378   42.5900 F   0  0  0  0  0  0  0  0  0  0  0  0
    2.2061    7.2913   42.0034 C   0  0  0  0  0  0  0  0  0  0  0  0
    2.2962    6.3222   43.0632 N   0  0  0  0  0  0  0  0  0  0  0  0
    3.1934    5.0867   43.2100 C   0  0  0  0  0  0  0  0  0  0  0  0
    3.9483    4.6110   42.4648 O   0  0  0  0  0  0  0  0  0  0  0  0
    3.0483    4.4877   44.5410 C   0  0  0  0  0  0  0  0  0  0  0  0
    2.1922    5.2361   45.8318 S   0  0  0  0  0  0  0  0  0  0  0  0
    2.6012    3.9313   46.8586 C   0  0  0  0  0  0  0  0  0  0  0  0
    3.3297    2.9820   46.3199 N   0  0  0  0  0  0  0  0  0  0  0  0
    3.5867    3.2915   44.9916 C   0  0  0  0  0  0  0  0  0  0  0  0
    4.5032    2.1815   44.0534 Cl  0  0  0  0  0  0  0  0  0  0  0  0
  2  1  1  6
  2  3  1  0
  2  4  1  0
  4  5  1  0
  5  6  1  0
  6  7  2  0
  6  8  1  0
  8  9  1  0
  9 10  1  0
 10 11  2  0
 11 12  1  0
 12 13  1  0
 12  8  2  0
M  END
>  <inchikey>  (599) 
WHZRGCRENJLWGV-UHFFFAOYSA-N

>  <tags>  (599) 
fragmenstein_placed,CpKRS_FrAncestor_bulkdock_iter2

>  <ref_pdb>  (599) 
x0602b

>  <energy_score>  (599) 
-23.536346

>  <distance_score>  (599) 
0.492069

>  <HIPPO Pose ID>  (599) 
55706

>  <ref_mols>  (599) 
x0504c

>  <smiles>  (599) 
CC(F)CNC(=O)c1scnc1Cl

>  <HIPPO Compound ID>  (599) 
450780

>  <alias>  (599) 
WHZRGCRENJLWGV-UHFFFAOYSA-N-P47

>  <subsites>  (599) 


>  <placement_batch>  (599) 
CpKRS_FrAncestor_bulkdock_iter2

>  <name>  (599) 
WHZRGCRENJLWGV-UHFFFAOYSA-N-P47

$$$$
GVOOGFLFHBBRPA-UHFFFAOYSA-N-P47
     RDKit          3D

 13 13  0  0  0  0  0  0  0  0999 V2000
    3.5473    8.3530   40.5251 C   0  0  0  0  0  0  0  0  0  0  0  0
    3.3734    7.9931   41.8011 C   0  0  0  0  0  0  0  0  0  0  0  0
    4.4603    8.0290   42.6034 F   0  0  0  0  0  0  0  0  0  0  0  0
    2.0754    7.5186   42.3756 C   0  0  0  0  0  0  0  0  0  0  0  0
    2.3534    6.5493   43.3946 N   0  0  0  0  0  0  0  0  0  0  0  0
    2.9135    5.1258   43.2896 C   0  0  0  0  0  0  0  0  0  0  0  0
    3.3112    4.5383   42.3679 O   0  0  0  0  0  0  0  0  0  0  0  0
    2.9664    4.4928   44.6127 C   0  0  0  0  0  0  0  0  0  0  0  0
    2.1987    5.1532   46.0003 S   0  0  0  0  0  0  0  0  0  0  0  0
    2.7332    3.8217   46.9255 C   0  0  0  0  0  0  0  0  0  0  0  0
    3.4629    2.9316   46.2921 N   0  0  0  0  0  0  0  0  0  0  0  0
    3.5931    3.3001   44.9585 C   0  0  0  0  0  0  0  0  0  0  0  0
    4.3585    2.3982   44.0497 C   0  0  0  0  0  0  0  0  0  0  0  0
  1  2  2  0
  2  3  1  0
  2  4  1  0
  4  5  1  0
  5  6  1  0
  6  7  2  0
  6  8  1  0
  8  9  1  0
  9 10  1  0
 10 11  2  0
 11 12  1  0
 12 13  1  0
 12  8  2  0
M  END
>  <inchikey>  (600) 
GVOOGFLFHBBRPA-UHFFFAOYSA-N

>  <tags>  (600) 
fragmenstein_placed,CpKRS_FrAncestor_bulkdock_iter2

>  <ref_pdb>  (600) 
x0602b

>  <energy_score>  (600) 
-19.521368

>  <distance_score>  (600) 
0.398412

>  <HIPPO Pose ID>  (600) 
55709

>  <ref_mols>  (600) 
x0504c

>  <smiles>  (600) 
C=C(F)CNC(=O)c1scnc1C

>  <HIPPO Compound ID>  (600) 
450781

>  <alias>  (600) 
GVOOGFLFHBBRPA-UHFFFAOYSA-N-P47

>  <subsites>  (600) 


>  <placement_batch>  (600) 
CpKRS_FrAncestor_bulkdock_iter2

>  <name>  (600) 
GVOOGFLFHBBRPA-UHFFFAOYSA-N-P47

$$$$
BRNLNXSGCHISAV-UHFFFAOYSA-N-P48
     RDKit          3D

 12 12  0  0  0  0  0  0  0  0999 V2000
    4.5445   -9.4088   24.1297 C   0  0  0  0  0  0  0  0  0  0  0  0
    4.6235  -10.1259   23.0055 C   0  0  0  0  0  0  0  0  0  0  0  0
    4.7308   -9.4587   21.8338 F   0  0  0  0  0  0  0  0  0  0  0  0
    4.7298  -11.6192   22.8541 C   0  0  0  0  0  0  0  0  0  0  0  0
    5.2987  -12.0508   21.9334 O   0  0  0  0  0  0  0  0  0  0  0  0
    4.0009  -12.3398   24.0066 N   0  0  0  0  0  0  0  0  0  0  0  0
    3.9008  -13.7409   24.3175 C   0  0  0  0  0  0  0  0  0  0  0  0
    3.0666  -13.9756   25.5295 C   0  0  0  0  0  0  0  0  0  0  0  0
    3.3587  -14.7452   26.6410 C   0  0  0  0  0  0  0  0  0  0  0  0
    2.3608  -14.8426   27.5930 N   0  0  0  0  0  0  0  0  0  0  0  0
    1.3214  -14.1405   27.2024 C   0  0  0  0  0  0  0  0  0  0  0  0
    1.4782  -13.3380   25.6954 S   0  0  0  0  0  0  0  0  0  0  0  0
  1  2  2  0
  2  3  1  0
  2  4  1  0
  4  5  2  0
  4  6  1  0
  6  7  1  0
  7  8  1  0
  8  9  2  0
  9 10  1  0
 10 11  2  0
 11 12  1  0
 12  8  1  0
M  END
>  <inchikey>  (601) 
BRNLNXSGCHISAV-UHFFFAOYSA-N

>  <tags>  (601) 
fragmenstein_placed,CpKRS_FrAncestor_bulkdock_iter2

>  <ref_pdb>  (601) 
x0602b

>  <energy_score>  (601) 
-22.664068

>  <distance_score>  (601) 
0.683932

>  <HIPPO Pose ID>  (601) 
55710

>  <ref_mols>  (601) 
x0504a

>  <smiles>  (601) 
C=C(F)C(=O)NCc1cncs1

>  <HIPPO Compound ID>  (601) 
450782

>  <alias>  (601) 
BRNLNXSGCHISAV-UHFFFAOYSA-N-P48

>  <subsites>  (601) 


>  <placement_batch>  (601) 
CpKRS_FrAncestor_bulkdock_iter2

>  <name>  (601) 
BRNLNXSGCHISAV-UHFFFAOYSA-N-P48

$$$$
RAUZWVSWQVLSBH-UHFFFAOYSA-N-P48
     RDKit          3D

 13 13  0  0  0  0  0  0  0  0999 V2000
    4.4334   -9.5090   24.1960 C   0  0  0  0  0  0  0  0  0  0  0  0
    4.7192  -10.2362   23.1121 C   0  0  0  0  0  0  0  0  0  0  0  0
    5.4612   -9.6669   22.1352 F   0  0  0  0  0  0  0  0  0  0  0  0
    4.1855  -11.5917   22.7439 C   0  0  0  0  0  0  0  0  0  0  0  0
    4.0123  -11.8379   21.6193 O   0  0  0  0  0  0  0  0  0  0  0  0
    3.9070  -12.4321   24.0041 N   0  0  0  0  0  0  0  0  0  0  0  0
    3.4461  -13.7863   24.1396 C   0  0  0  0  0  0  0  0  0  0  0  0
    2.7606  -13.9819   25.4455 C   0  0  0  0  0  0  0  0  0  0  0  0
    1.2124  -13.2898   25.7450 S   0  0  0  0  0  0  0  0  0  0  0  0
    1.1696  -14.0630   27.2728 C   0  0  0  0  0  0  0  0  0  0  0  0
    2.2253  -14.7762   27.5879 N   0  0  0  0  0  0  0  0  0  0  0  0
    3.1323  -14.7254   26.5490 C   0  0  0  0  0  0  0  0  0  0  0  0
    4.7620  -15.6757   26.6844 Br  0  0  0  0  0  0  0  0  0  0  0  0
  1  2  2  0
  2  3  1  0
  2  4  1  0
  4  5  2  0
  4  6  1  0
  6  7  1  0
  7  8  1  0
  8  9  1  0
  9 10  1  0
 10 11  2  0
 11 12  1  0
 12 13  1  0
 12  8  2  0
M  END
>  <inchikey>  (602) 
RAUZWVSWQVLSBH-UHFFFAOYSA-N

>  <tags>  (602) 
fragmenstein_placed,CpKRS_FrAncestor_bulkdock_iter2

>  <ref_pdb>  (602) 
x0602b

>  <energy_score>  (602) 
-59.327646

>  <distance_score>  (602) 
0.697994

>  <HIPPO Pose ID>  (602) 
55713

>  <ref_mols>  (602) 
x0504a

>  <smiles>  (602) 
C=C(F)C(=O)NCc1scnc1Br

>  <HIPPO Compound ID>  (602) 
450783

>  <alias>  (602) 
RAUZWVSWQVLSBH-UHFFFAOYSA-N-P48

>  <subsites>  (602) 


>  <placement_batch>  (602) 
CpKRS_FrAncestor_bulkdock_iter2

>  <name>  (602) 
RAUZWVSWQVLSBH-UHFFFAOYSA-N-P48

$$$$
DYKXTSPNMSEBAU-UHFFFAOYSA-N-P49
     RDKit          3D

 13 13  0  0  0  0  0  0  0  0999 V2000
    5.4030   -8.8567   22.9256 C   0  0  0  0  0  0  0  0  0  0  0  0
    4.8717   -9.8675   23.6173 C   0  0  0  0  0  0  0  0  0  0  0  0
    4.6654   -9.7494   24.9450 F   0  0  0  0  0  0  0  0  0  0  0  0
    4.4734  -11.1690   22.9877 C   0  0  0  0  0  0  0  0  0  0  0  0
    4.5323  -11.3399   21.8377 O   0  0  0  0  0  0  0  0  0  0  0  0
    3.9820  -12.1002   24.1113 N   0  0  0  0  0  0  0  0  0  0  0  0
    3.5490  -13.4701   24.0660 C   0  0  0  0  0  0  0  0  0  0  0  0
    2.9236  -13.8567   25.3639 C   0  0  0  0  0  0  0  0  0  0  0  0
    1.4190  -13.1728   25.8510 S   0  0  0  0  0  0  0  0  0  0  0  0
    1.4662  -14.1159   27.2739 C   0  0  0  0  0  0  0  0  0  0  0  0
    2.4958  -14.9148   27.4082 N   0  0  0  0  0  0  0  0  0  0  0  0
    3.3501  -14.7630   26.3261 C   0  0  0  0  0  0  0  0  0  0  0  0
    4.5928  -15.5782   26.3095 C   0  0  0  0  0  0  0  0  0  0  0  0
  1  2  2  0
  2  3  1  0
  2  4  1  0
  4  5  2  0
  4  6  1  0
  6  7  1  0
  7  8  1  0
  8  9  1  0
  9 10  1  0
 10 11  2  0
 11 12  1  0
 12 13  1  0
 12  8  2  0
M  END
>  <inchikey>  (603) 
DYKXTSPNMSEBAU-UHFFFAOYSA-N

>  <tags>  (603) 
fragmenstein_placed,CpKRS_FrAncestor_bulkdock_iter2

>  <ref_pdb>  (603) 
x0602b

>  <energy_score>  (603) 
-28.963524

>  <distance_score>  (603) 
0.820544

>  <HIPPO Pose ID>  (603) 
55717

>  <ref_mols>  (603) 
x0504b

>  <smiles>  (603) 
C=C(F)C(=O)NCc1scnc1C

>  <HIPPO Compound ID>  (603) 
450784

>  <alias>  (603) 
DYKXTSPNMSEBAU-UHFFFAOYSA-N-P49

>  <subsites>  (603) 


>  <placement_batch>  (603) 
CpKRS_FrAncestor_bulkdock_iter2

>  <name>  (603) 
DYKXTSPNMSEBAU-UHFFFAOYSA-N-P49

$$$$
GEFVOEGHLVNYKI-UHFFFAOYSA-N-P49
     RDKit          3D

 14 14  0  0  0  0  0  0  0  0999 V2000
    5.2753   -8.7055   22.9834 C   0  0  0  0  0  0  0  0  0  0  0  0
    4.7625   -9.7073   23.7015 C   0  0  0  0  0  0  0  0  0  0  0  0
    4.5348   -9.5543   25.0223 F   0  0  0  0  0  0  0  0  0  0  0  0
    4.4398  -11.0482   23.1149 C   0  0  0  0  0  0  0  0  0  0  0  0
    4.5319  -11.2629   21.9738 O   0  0  0  0  0  0  0  0  0  0  0  0
    4.0235  -11.9732   24.2749 N   0  0  0  0  0  0  0  0  0  0  0  0
    3.7232  -13.3876   24.2869 C   0  0  1  0  0  0  0  0  0  0  0  0
    5.0278  -14.1505   24.1498 C   0  0  0  0  0  0  0  0  0  0  0  0
    2.9101  -13.7335   25.5121 C   0  0  0  0  0  0  0  0  0  0  0  0
    1.4165  -12.8858   25.7674 S   0  0  0  0  0  0  0  0  0  0  0  0
    1.1531  -13.7801   27.1892 C   0  0  0  0  0  0  0  0  0  0  0  0
    2.0394  -14.6982   27.4720 N   0  0  0  0  0  0  0  0  0  0  0  0
    3.0651  -14.6752   26.5317 C   0  0  0  0  0  0  0  0  0  0  0  0
    4.1623  -15.6608   26.7462 C   0  0  0  0  0  0  0  0  0  0  0  0
  1  2  2  0
  2  3  1  0
  2  4  1  0
  4  5  2  0
  4  6  1  0
  6  7  1  0
  7  8  1  1
  7  9  1  0
  9 10  1  0
 10 11  1  0
 11 12  2  0
 12 13  1  0
 13 14  1  0
 13  9  2  0
M  END
>  <inchikey>  (604) 
GEFVOEGHLVNYKI-UHFFFAOYSA-N

>  <tags>  (604) 
fragmenstein_placed,CpKRS_FrAncestor_bulkdock_iter2

>  <ref_pdb>  (604) 
x0602b

>  <energy_score>  (604) 
-63.406754

>  <distance_score>  (604) 
0.502858

>  <HIPPO Pose ID>  (604) 
55720

>  <ref_mols>  (604) 
x0504b

>  <smiles>  (604) 
C=C(F)C(=O)NC(C)c1scnc1C

>  <HIPPO Compound ID>  (604) 
450785

>  <alias>  (604) 
GEFVOEGHLVNYKI-UHFFFAOYSA-N-P49

>  <subsites>  (604) 


>  <placement_batch>  (604) 
CpKRS_FrAncestor_bulkdock_iter2

>  <name>  (604) 
GEFVOEGHLVNYKI-UHFFFAOYSA-N-P49

$$$$
XTBAJENVHWDGGO-UHFFFAOYSA-N-P54
     RDKit          3D

 14 14  0  0  0  0  0  0  0  0999 V2000
   11.0507  -36.8499   11.0014 C   0  0  0  0  0  0  0  0  0  0  0  0
    9.5939  -36.4696   10.7590 C   0  0  0  0  0  0  0  0  0  0  0  0
    9.4649  -35.1785   11.1703 F   0  0  0  0  0  0  0  0  0  0  0  0
    9.4521  -36.4448    9.3974 F   0  0  0  0  0  0  0  0  0  0  0  0
    8.5539  -37.3677   11.4076 C   0  0  0  0  0  0  0  0  0  0  0  0
    8.9032  -38.2027   12.4892 C   0  0  0  0  0  0  0  0  0  0  0  0
    7.9659  -39.0319   13.1099 C   0  0  0  0  0  0  0  0  0  0  0  0
    6.6503  -39.0531   12.6700 C   0  0  0  0  0  0  0  0  0  0  0  0
    6.2630  -38.2264   11.6210 C   0  0  0  0  0  0  0  0  0  0  0  0
    7.1985  -37.3794   10.9988 C   0  0  0  0  0  0  0  0  0  0  0  0
    6.5460  -36.2199    9.7992 S   0  0  0  0  0  0  0  0  0  0  0  0
    7.1401  -36.8007    8.3433 N   0  0  0  0  0  0  0  0  0  0  0  0
    7.1448  -34.9308   10.0515 O   0  0  0  0  0  0  0  0  0  0  0  0
    5.1092  -36.3740    9.7682 O   0  0  0  0  0  0  0  0  0  0  0  0
  1  2  1  0
  2  3  1  0
  2  4  1  0
  2  5  1  0
  5  6  2  0
  6  7  1  0
  7  8  2  0
  8  9  1  0
  9 10  2  0
 10 11  1  0
 11 12  1  0
 11 13  2  0
 11 14  2  0
 10  5  1  0
M  END
>  <inchikey>  (605) 
XTBAJENVHWDGGO-UHFFFAOYSA-N

>  <tags>  (605) 
fragmenstein_placed,CpKRS_FrAncestor_bulkdock_iter2

>  <ref_pdb>  (605) 
x0602b

>  <energy_score>  (605) 
-38.427792

>  <distance_score>  (605) 
0.367787

>  <HIPPO Pose ID>  (605) 
55728

>  <ref_mols>  (605) 
x0639c

>  <smiles>  (605) 
CC(F)(F)c1ccccc1S(N)(=O)=O

>  <HIPPO Compound ID>  (605) 
450788

>  <alias>  (605) 
XTBAJENVHWDGGO-UHFFFAOYSA-N-P54

>  <subsites>  (605) 


>  <placement_batch>  (605) 
CpKRS_FrAncestor_bulkdock_iter2

>  <name>  (605) 
XTBAJENVHWDGGO-UHFFFAOYSA-N-P54

$$$$
BITAGGINHQNGDV-UHFFFAOYSA-N-P60
     RDKit          3D

 17 18  0  0  0  0  0  0  0  0999 V2000
   -4.8704  -25.9079   26.9280 C   0  0  0  0  0  0  0  0  0  0  0  0
   -3.5265  -25.1973   26.8585 C   0  0  0  0  0  0  0  0  0  0  0  0
   -3.7995  -23.8555   26.9197 F   0  0  0  0  0  0  0  0  0  0  0  0
   -2.8513  -25.4817   28.0154 F   0  0  0  0  0  0  0  0  0  0  0  0
   -2.6856  -25.5352   25.6467 C   0  0  0  0  0  0  0  0  0  0  0  0
   -1.8720  -24.5384   25.0899 C   0  0  0  0  0  0  0  0  0  0  0  0
   -1.0544  -24.8066   23.9938 C   0  0  0  0  0  0  0  0  0  0  0  0
   -1.0222  -26.0825   23.4427 C   0  0  0  0  0  0  0  0  0  0  0  0
   -1.8361  -27.0944   23.9627 C   0  0  0  0  0  0  0  0  0  0  0  0
   -1.8492  -28.4610   23.3146 C   0  0  0  0  0  0  0  0  0  0  0  0
   -0.7271  -29.3230   23.7118 N   0  0  0  0  0  0  0  0  0  0  0  0
   -0.8136  -29.7848   25.1094 C   0  0  0  0  0  0  0  0  0  0  0  0
   -1.6593  -31.0546   25.2800 C   0  0  0  0  0  0  0  0  0  0  0  0
   -1.2028  -32.1659   24.4985 O   0  0  0  0  0  0  0  0  0  0  0  0
   -0.2528  -31.7936   23.4897 C   0  0  0  0  0  0  0  0  0  0  0  0
   -0.6520  -30.4859   22.7912 C   0  0  0  0  0  0  0  0  0  0  0  0
   -2.6535  -26.8148   25.0720 C   0  0  0  0  0  0  0  0  0  0  0  0
  1  2  1  0
  2  3  1  0
  2  4  1  0
  2  5  1  0
  5  6  2  0
  6  7  1  0
  7  8  2  0
  8  9  1  0
  9 10  1  0
 10 11  1  0
 11 12  1  0
 12 13  1  0
 13 14  1  0
 14 15  1  0
 15 16  1  0
  9 17  2  0
 17  5  1  0
 16 11  1  0
M  END
>  <inchikey>  (606) 
BITAGGINHQNGDV-UHFFFAOYSA-N

>  <tags>  (606) 
fragmenstein_placed,CpKRS_FrAncestor_bulkdock_iter2

>  <ref_pdb>  (606) 
x0602b

>  <energy_score>  (606) 
-18.676992

>  <distance_score>  (606) 
0.407987

>  <HIPPO Pose ID>  (606) 
55730

>  <ref_mols>  (606) 
x0675b

>  <smiles>  (606) 
CC(F)(F)c1cccc(CN2CCOCC2)c1

>  <HIPPO Compound ID>  (606) 
450789

>  <alias>  (606) 
BITAGGINHQNGDV-UHFFFAOYSA-N-P60

>  <subsites>  (606) 


>  <placement_batch>  (606) 
CpKRS_FrAncestor_bulkdock_iter2

>  <name>  (606) 
BITAGGINHQNGDV-UHFFFAOYSA-N-P60

$$$$
BOMFEECGTBUZMJ-UHFFFAOYSA-N-P31
     RDKit          3D

 14 14  0  0  0  0  0  0  0  0999 V2000
    0.7444   11.9752   40.6108 C   0  0  0  0  0  0  0  0  0  0  0  0
    1.5304   10.7902   41.1440 C   0  0  0  0  0  0  0  0  0  0  0  0
    0.6739    9.7263   41.1475 F   0  0  0  0  0  0  0  0  0  0  0  0
    1.7853   11.0502   42.4607 F   0  0  0  0  0  0  0  0  0  0  0  0
    2.8037   10.4435   40.3926 C   0  0  0  0  0  0  0  0  0  0  0  0
    3.0632   10.8707   39.0812 C   0  0  0  0  0  0  0  0  0  0  0  0
    4.2070   10.4416   38.4052 C   0  0  0  0  0  0  0  0  0  0  0  0
    5.1042    9.5823   39.0393 C   0  0  0  0  0  0  0  0  0  0  0  0
    6.4482    8.8873   38.1203 S   0  0  0  0  0  0  0  0  0  0  0  0
    6.1275    7.2374   38.2538 N   0  0  0  0  0  0  0  0  0  0  0  0
    6.2399    9.1811   36.7210 O   0  0  0  0  0  0  0  0  0  0  0  0
    7.6832    9.1544   38.8054 O   0  0  0  0  0  0  0  0  0  0  0  0
    4.8973    9.1830   40.3590 C   0  0  0  0  0  0  0  0  0  0  0  0
    3.7428    9.6023   41.0210 C   0  0  0  0  0  0  0  0  0  0  0  0
  1  2  1  0
  2  3  1  0
  2  4  1  0
  2  5  1  0
  5  6  2  0
  6  7  1  0
  7  8  2  0
  8  9  1  0
  9 10  1  0
  9 11  2  0
  9 12  2  0
  8 13  1  0
 13 14  2  0
 14  5  1  0
M  END
>  <inchikey>  (607) 
BOMFEECGTBUZMJ-UHFFFAOYSA-N

>  <tags>  (607) 
fragmenstein_placed,CpKRS_FrAncestor_bulkdock_iter2

>  <ref_pdb>  (607) 
x0602b

>  <energy_score>  (607) 
-26.86451

>  <distance_score>  (607) 
0.496449

>  <HIPPO Pose ID>  (607) 
55741

>  <ref_mols>  (607) 
x0487b

>  <smiles>  (607) 
CC(F)(F)c1ccc(S(N)(=O)=O)cc1

>  <HIPPO Compound ID>  (607) 
450791

>  <alias>  (607) 
BOMFEECGTBUZMJ-UHFFFAOYSA-N-P31

>  <subsites>  (607) 


>  <placement_batch>  (607) 
CpKRS_FrAncestor_bulkdock_iter2

>  <name>  (607) 
BOMFEECGTBUZMJ-UHFFFAOYSA-N-P31

$$$$
FICZQFHKPGZELP-UHFFFAOYSA-N-P33
     RDKit          3D

 17 18  0  0  0  0  0  0  0  0999 V2000
    5.4583   -8.9951   24.0431 C   0  0  0  0  0  0  0  0  0  0  0  0
    4.0162   -9.3903   23.8026 C   0  0  0  0  0  0  0  0  0  0  0  0
    3.2269   -8.5335   24.5103 F   0  0  0  0  0  0  0  0  0  0  0  0
    3.7283   -9.1917   22.4957 F   0  0  0  0  0  0  0  0  0  0  0  0
    3.6687  -10.8073   24.2091 C   0  0  0  0  0  0  0  0  0  0  0  0
    2.2110  -11.1891   23.9365 C   0  0  0  0  0  0  0  0  0  0  0  0
    1.8754  -12.4398   24.7583 C   0  0  0  0  0  0  0  0  0  0  0  0
    3.0064  -13.3628   24.7680 N   0  0  0  0  0  0  0  0  0  0  0  0
    3.2961  -14.1654   25.8576 C   0  0  0  0  0  0  0  0  0  0  0  0
    2.3343  -14.5015   26.8314 C   0  0  0  0  0  0  0  0  0  0  0  0
    2.5491  -15.2938   27.9207 N   0  0  0  0  0  0  0  0  0  0  0  0
    3.8070  -15.7802   27.9766 C   0  0  0  0  0  0  0  0  0  0  0  0
    4.7766  -15.4581   27.0398 C   0  0  0  0  0  0  0  0  0  0  0  0
    6.0253  -15.9172   27.1996 F   0  0  0  0  0  0  0  0  0  0  0  0
    4.5515  -14.6444   25.9917 N   0  0  0  0  0  0  0  0  0  0  0  0
    3.9766  -13.2642   23.6804 C   0  0  0  0  0  0  0  0  0  0  0  0
    4.6190  -11.8799   23.6675 C   0  0  0  0  0  0  0  0  0  0  0  0
  1  2  1  0
  2  3  1  0
  2  4  1  0
  2  5  1  0
  5  6  1  0
  6  7  1  0
  7  8  1  0
  8  9  1  0
  9 10  2  0
 10 11  1  0
 11 12  2  0
 12 13  1  0
 13 14  1  0
 13 15  2  0
  8 16  1  0
 16 17  1  0
 17  5  1  0
 15  9  1  0
M  END
>  <inchikey>  (608) 
FICZQFHKPGZELP-UHFFFAOYSA-N

>  <tags>  (608) 
fragmenstein_placed,CpKRS_FrAncestor_bulkdock_iter2

>  <ref_pdb>  (608) 
x0602b

>  <energy_score>  (608) 
-19.085972

>  <distance_score>  (608) 
0.805147

>  <HIPPO Pose ID>  (608) 
55745

>  <ref_mols>  (608) 
x0489a

>  <smiles>  (608) 
CC(F)(F)C1CCN(c2cncc(F)n2)CC1

>  <HIPPO Compound ID>  (608) 
450792

>  <alias>  (608) 
FICZQFHKPGZELP-UHFFFAOYSA-N-P33

>  <subsites>  (608) 


>  <placement_batch>  (608) 
CpKRS_FrAncestor_bulkdock_iter2

>  <name>  (608) 
FICZQFHKPGZELP-UHFFFAOYSA-N-P33

$$$$
QGMRMZWQSRNFQW-UHFFFAOYSA-N-P33
     RDKit          3D

 16 17  0  0  0  0  0  0  0  0999 V2000
    5.2845   -8.9812   23.5099 C   0  0  0  0  0  0  0  0  0  0  0  0
    3.9109   -9.5197   23.8514 C   0  0  0  0  0  0  0  0  0  0  0  0
    2.9694   -8.6842   23.3480 F   0  0  0  0  0  0  0  0  0  0  0  0
    3.7541   -9.4504   25.1892 F   0  0  0  0  0  0  0  0  0  0  0  0
    3.6277  -10.9295   23.3395 C   0  0  0  0  0  0  0  0  0  0  0  0
    2.2142  -11.3993   23.7394 C   0  0  0  0  0  0  0  0  0  0  0  0
    2.2100  -12.2053   25.0351 C   0  0  0  0  0  0  0  0  0  0  0  0
    3.1005  -13.3567   24.9191 N   0  0  0  0  0  0  0  0  0  0  0  0
    3.3204  -14.1664   26.0294 C   0  0  0  0  0  0  0  0  0  0  0  0
    2.3434  -14.3905   27.0156 C   0  0  0  0  0  0  0  0  0  0  0  0
    2.4836  -15.2069   28.1021 N   0  0  0  0  0  0  0  0  0  0  0  0
    3.6781  -15.8270   28.1541 C   0  0  0  0  0  0  0  0  0  0  0  0
    4.6628  -15.6213   27.2078 C   0  0  0  0  0  0  0  0  0  0  0  0
    4.5103  -14.7927   26.1575 N   0  0  0  0  0  0  0  0  0  0  0  0
    4.1431  -13.3308   23.8913 C   0  0  0  0  0  0  0  0  0  0  0  0
    4.7079  -11.9270   23.7700 C   0  0  0  0  0  0  0  0  0  0  0  0
  1  2  1  0
  2  3  1  0
  2  4  1  0
  2  5  1  0
  5  6  1  0
  6  7  1  0
  7  8  1  0
  8  9  1  0
  9 10  2  0
 10 11  1  0
 11 12  2  0
 12 13  1  0
 13 14  2  0
  8 15  1  0
 15 16  1  0
 16  5  1  0
 14  9  1  0
M  END
>  <inchikey>  (609) 
QGMRMZWQSRNFQW-UHFFFAOYSA-N

>  <tags>  (609) 
fragmenstein_placed,CpKRS_FrAncestor_bulkdock_iter2

>  <ref_pdb>  (609) 
x0602b

>  <energy_score>  (609) 
-23.616036

>  <distance_score>  (609) 
0.62727

>  <HIPPO Pose ID>  (609) 
55746

>  <ref_mols>  (609) 
x0489a

>  <smiles>  (609) 
CC(F)(F)C1CCN(c2cnccn2)CC1

>  <HIPPO Compound ID>  (609) 
133738

>  <alias>  (609) 
QGMRMZWQSRNFQW-UHFFFAOYSA-N-P33

>  <subsites>  (609) 


>  <placement_batch>  (609) 
CpKRS_FrAncestor_bulkdock_iter2

>  <name>  (609) 
QGMRMZWQSRNFQW-UHFFFAOYSA-N-P33

$$$$
MCJQIXCEFFOQFP-UHFFFAOYSA-N-P33
     RDKit          3D

 17 18  0  0  0  0  0  0  0  0999 V2000
    5.3019   -8.9668   23.5329 C   0  0  0  0  0  0  0  0  0  0  0  0
    3.9266   -9.5203   23.8424 C   0  0  0  0  0  0  0  0  0  0  0  0
    3.7443   -9.4721   25.1778 F   0  0  0  0  0  0  0  0  0  0  0  0
    2.9884   -8.6843   23.3336 F   0  0  0  0  0  0  0  0  0  0  0  0
    3.6638  -10.9253   23.3058 C   0  0  0  0  0  0  0  0  0  0  0  0
    2.2448  -11.4056   23.6659 C   0  0  0  0  0  0  0  0  0  0  0  0
    2.2057  -12.1804   24.9783 C   0  0  0  0  0  0  0  0  0  0  0  0
    3.1198  -13.3169   24.9254 N   0  0  0  0  0  0  0  0  0  0  0  0
    3.2787  -14.1375   26.0329 C   0  0  0  0  0  0  0  0  0  0  0  0
    2.2730  -14.3131   27.0026 C   0  0  0  0  0  0  0  0  0  0  0  0
    2.3481  -15.1327   28.0905 N   0  0  0  0  0  0  0  0  0  0  0  0
    3.5086  -15.8085   28.1659 C   0  0  0  0  0  0  0  0  0  0  0  0
    3.6846  -16.6313   29.2092 F   0  0  0  0  0  0  0  0  0  0  0  0
    4.5225  -15.6539   27.2411 C   0  0  0  0  0  0  0  0  0  0  0  0
    4.4353  -14.8201   26.1821 N   0  0  0  0  0  0  0  0  0  0  0  0
    4.1757  -13.3226   23.9124 C   0  0  0  0  0  0  0  0  0  0  0  0
    4.7382  -11.9209   23.7551 C   0  0  0  0  0  0  0  0  0  0  0  0
  1  2  1  0
  2  3  1  0
  2  4  1  0
  2  5  1  0
  5  6  1  0
  6  7  1  0
  7  8  1  0
  8  9  1  0
  9 10  2  0
 10 11  1  0
 11 12  2  0
 12 13  1  0
 12 14  1  0
 14 15  2  0
  8 16  1  0
 16 17  1  0
 17  5  1  0
 15  9  1  0
M  END
>  <inchikey>  (610) 
MCJQIXCEFFOQFP-UHFFFAOYSA-N

>  <tags>  (610) 
fragmenstein_placed,CpKRS_FrAncestor_bulkdock_iter2

>  <ref_pdb>  (610) 
x0602b

>  <energy_score>  (610) 
-22.077463

>  <distance_score>  (610) 
0.637649

>  <HIPPO Pose ID>  (610) 
55747

>  <ref_mols>  (610) 
x0489a

>  <smiles>  (610) 
CC(F)(F)C1CCN(c2cnc(F)cn2)CC1

>  <HIPPO Compound ID>  (610) 
450793

>  <alias>  (610) 
MCJQIXCEFFOQFP-UHFFFAOYSA-N-P33

>  <subsites>  (610) 


>  <placement_batch>  (610) 
CpKRS_FrAncestor_bulkdock_iter2

>  <name>  (610) 
MCJQIXCEFFOQFP-UHFFFAOYSA-N-P33

$$$$
GBACWDVHTVLPIK-UHFFFAOYSA-N-P33
     RDKit          3D

 17 18  0  0  0  0  0  0  0  0999 V2000
    5.4720   -9.1015   23.6123 C   0  0  0  0  0  0  0  0  0  0  0  0
    4.0199   -9.5184   23.7243 C   0  0  0  0  0  0  0  0  0  0  0  0
    3.6105   -9.2989   24.9971 F   0  0  0  0  0  0  0  0  0  0  0  0
    3.2826   -8.6797   22.9478 F   0  0  0  0  0  0  0  0  0  0  0  0
    3.7052  -10.9489   23.2933 C   0  0  0  0  0  0  0  0  0  0  0  0
    4.7385  -11.9628   23.7840 C   0  0  0  0  0  0  0  0  0  0  0  0
    4.1304  -13.3491   23.8644 C   0  0  0  0  0  0  0  0  0  0  0  0
    3.0750  -13.3540   24.8778 N   0  0  0  0  0  0  0  0  0  0  0  0
    3.2818  -14.1528   26.0053 C   0  0  0  0  0  0  0  0  0  0  0  0
    4.4846  -14.7709   26.1326 N   0  0  0  0  0  0  0  0  0  0  0  0
    4.6500  -15.6014   27.1791 C   0  0  0  0  0  0  0  0  0  0  0  0
    3.6706  -15.8145   28.1286 C   0  0  0  0  0  0  0  0  0  0  0  0
    2.4718  -15.2028   28.0873 N   0  0  0  0  0  0  0  0  0  0  0  0
    2.3053  -14.3853   27.0057 C   0  0  0  0  0  0  0  0  0  0  0  0
    1.1012  -13.7903   26.9274 F   0  0  0  0  0  0  0  0  0  0  0  0
    2.2097  -12.1776   24.9754 C   0  0  0  0  0  0  0  0  0  0  0  0
    2.2683  -11.3584   23.6827 C   0  0  0  0  0  0  0  0  0  0  0  0
  1  2  1  0
  2  3  1  0
  2  4  1  0
  2  5  1  0
  5  6  1  0
  6  7  1  0
  7  8  1  0
  8  9  1  0
  9 10  2  0
 10 11  1  0
 11 12  2  0
 12 13  1  0
 13 14  2  0
 14 15  1  0
  8 16  1  0
 16 17  1  0
 17  5  1  0
 14  9  1  0
M  END
>  <inchikey>  (611) 
GBACWDVHTVLPIK-UHFFFAOYSA-N

>  <tags>  (611) 
fragmenstein_placed,CpKRS_FrAncestor_bulkdock_iter2

>  <ref_pdb>  (611) 
x0602b

>  <energy_score>  (611) 
-24.667146

>  <distance_score>  (611) 
0.691652

>  <HIPPO Pose ID>  (611) 
55748

>  <ref_mols>  (611) 
x0489a

>  <smiles>  (611) 
CC(F)(F)C1CCN(c2nccnc2F)CC1

>  <HIPPO Compound ID>  (611) 
450794

>  <alias>  (611) 
GBACWDVHTVLPIK-UHFFFAOYSA-N-P33

>  <subsites>  (611) 


>  <placement_batch>  (611) 
CpKRS_FrAncestor_bulkdock_iter2

>  <name>  (611) 
GBACWDVHTVLPIK-UHFFFAOYSA-N-P33

$$$$
HCCPSNGFSQPRBW-UHFFFAOYSA-N-P48
     RDKit          3D

 17 17  0  0  0  0  0  0  0  0999 V2000
    0.8756  -15.2650   29.4346 C   0  0  0  0  0  0  0  0  0  0  0  0
    0.6231  -14.5550   28.1088 C   0  0  0  0  0  0  0  0  0  0  0  0
   -0.3472  -15.1679   27.3826 F   0  0  0  0  0  0  0  0  0  0  0  0
    0.1237  -13.3270   28.3845 F   0  0  0  0  0  0  0  0  0  0  0  0
    1.8837  -14.4820   27.2988 C   0  0  0  0  0  0  0  0  0  0  0  0
    2.9440  -15.2433   27.5016 N   0  0  0  0  0  0  0  0  0  0  0  0
    3.9504  -14.8670   26.6440 C   0  0  0  0  0  0  0  0  0  0  0  0
    3.6387  -13.8622   25.7504 C   0  0  0  0  0  0  0  0  0  0  0  0
    4.5572  -13.2478   24.8009 C   0  0  0  0  0  0  0  0  0  0  0  0
    5.6993  -13.4049   24.9498 O   0  0  0  0  0  0  0  0  0  0  0  0
    3.7903  -12.5256   23.6859 N   0  0  0  0  0  0  0  0  0  0  0  0
    4.2729  -11.7558   22.5580 C   0  0  0  0  0  0  0  0  0  0  0  0
    4.3191  -10.2432   22.7625 C   0  0  0  0  0  0  0  0  0  0  0  0
    4.9534   -9.6380   21.7310 F   0  0  0  0  0  0  0  0  0  0  0  0
    4.9532   -9.8791   23.8964 F   0  0  0  0  0  0  0  0  0  0  0  0
    3.0698   -9.7089   22.8157 F   0  0  0  0  0  0  0  0  0  0  0  0
    2.0084  -13.3898   25.9723 S   0  0  0  0  0  0  0  0  0  0  0  0
  1  2  1  0
  2  3  1  0
  2  4  1  0
  2  5  1  0
  5  6  2  0
  6  7  1  0
  7  8  2  0
  8  9  1  0
  9 10  2  0
  9 11  1  0
 11 12  1  0
 12 13  1  0
 13 14  1  0
 13 15  1  0
 13 16  1  0
  8 17  1  0
 17  5  1  0
M  END
>  <inchikey>  (612) 
HCCPSNGFSQPRBW-UHFFFAOYSA-N

>  <tags>  (612) 
fragmenstein_placed,CpKRS_FrAncestor_bulkdock_iter2

>  <ref_pdb>  (612) 
x0602b

>  <energy_score>  (612) 
-40.587773

>  <distance_score>  (612) 
0.573048

>  <HIPPO Pose ID>  (612) 
55749

>  <ref_mols>  (612) 
x0504a

>  <smiles>  (612) 
CC(F)(F)c1ncc(C(=O)NCC(F)(F)F)s1

>  <HIPPO Compound ID>  (612) 
144838

>  <alias>  (612) 
HCCPSNGFSQPRBW-UHFFFAOYSA-N-P48

>  <subsites>  (612) 


>  <placement_batch>  (612) 
CpKRS_FrAncestor_bulkdock_iter2

>  <name>  (612) 
HCCPSNGFSQPRBW-UHFFFAOYSA-N-P48

$$$$
IGBAWKJWKKQPRI-UHFFFAOYSA-N-P27
     RDKit          3D

 17 17  0  0  0  0  0  0  0  0999 V2000
   23.8467   22.3424   28.0971 C   0  0  0  0  0  0  0  0  0  0  0  0
   23.3021   21.1382   27.8811 C   0  0  0  0  0  0  0  0  0  0  0  0
   21.8325   20.9096   27.8003 C   0  0  0  0  0  0  0  0  0  0  0  0
   21.3208   20.0802   28.4364 O   0  0  0  0  0  0  0  0  0  0  0  0
   21.2418   21.8745   26.7601 N   0  0  0  0  0  0  0  0  0  0  0  0
   19.8758   22.0880   26.3497 C   0  0  0  0  0  0  0  0  0  0  0  0
   19.0621   22.7746   27.4469 C   0  0  0  0  0  0  0  0  0  0  0  0
   17.6658   23.1517   27.0150 C   0  0  0  0  0  0  0  0  0  0  0  0
   17.2386   24.4842   27.0837 C   0  0  0  0  0  0  0  0  0  0  0  0
   15.9299   24.8319   26.7480 C   0  0  0  0  0  0  0  0  0  0  0  0
   15.0331   23.8373   26.3660 C   0  0  0  0  0  0  0  0  0  0  0  0
   13.3815   24.2846   25.9311 S   0  0  0  0  0  0  0  0  0  0  0  0
   13.0493   23.3325   24.4937 C   0  0  0  0  0  0  0  0  0  0  0  0
   13.3865   25.6741   25.5071 O   0  0  0  0  0  0  0  0  0  0  0  0
   12.4954   23.8150   26.9712 O   0  0  0  0  0  0  0  0  0  0  0  0
   15.4420   22.5049   26.2774 C   0  0  0  0  0  0  0  0  0  0  0  0
   16.7591   22.1704   26.5944 C   0  0  0  0  0  0  0  0  0  0  0  0
  1  2  2  0
  2  3  1  0
  3  4  2  0
  3  5  1  0
  5  6  1  0
  6  7  1  0
  7  8  1  0
  8  9  2  0
  9 10  1  0
 10 11  2  0
 11 12  1  0
 12 13  1  0
 12 14  2  0
 12 15  2  0
 11 16  1  0
 16 17  2  0
 17  8  1  0
M  END
>  <inchikey>  (613) 
IGBAWKJWKKQPRI-UHFFFAOYSA-N

>  <tags>  (613) 
fragmenstein_placed,CpKRS_FrAncestor_bulkdock_iter2

>  <ref_pdb>  (613) 
x0602b

>  <energy_score>  (613) 
-8.563168

>  <distance_score>  (613) 
0.930175

>  <HIPPO Pose ID>  (613) 
55752

>  <ref_mols>  (613) 
x0483a

>  <smiles>  (613) 
C=CC(=O)NCCc1ccc(S(C)(=O)=O)cc1

>  <HIPPO Compound ID>  (613) 
450795

>  <alias>  (613) 
IGBAWKJWKKQPRI-UHFFFAOYSA-N-P27

>  <subsites>  (613) 


>  <placement_batch>  (613) 
CpKRS_FrAncestor_bulkdock_iter2

>  <name>  (613) 
IGBAWKJWKKQPRI-UHFFFAOYSA-N-P27

$$$$
HFWVVTWTNDQMBC-UHFFFAOYSA-N-P49
     RDKit          3D

 17 17  0  0  0  0  0  0  0  0999 V2000
    4.9893  -13.8537   24.1201 C   0  0  0  0  0  0  0  0  0  0  0  0
    3.5632  -13.4764   24.5114 C   0  0  2  0  0  0  0  0  0  0  0  0
    3.2731  -11.9548   24.7617 C   0  0  0  0  0  0  0  0  0  0  0  0
    2.3563  -11.6430   25.4197 O   0  0  0  0  0  0  0  0  0  0  0  0
    4.3082  -11.0755   23.9866 N   0  0  0  0  0  0  0  0  0  0  0  0
    4.4799   -9.6064   23.9452 C   0  0  0  0  0  0  0  0  0  0  0  0
    3.1235   -8.9302   24.1458 C   0  0  0  0  0  0  0  0  0  0  0  0
    5.3907   -9.1460   25.0831 C   0  0  0  0  0  0  0  0  0  0  0  0
    5.1446   -9.1082   22.6370 C   0  0  0  0  0  0  0  0  0  0  0  0
    5.4052   -7.7812   22.6866 F   0  0  0  0  0  0  0  0  0  0  0  0
    6.3135   -9.7444   22.4150 F   0  0  0  0  0  0  0  0  0  0  0  0
    4.3709   -9.3286   21.5545 F   0  0  0  0  0  0  0  0  0  0  0  0
    3.0790  -14.2574   25.7397 C   0  0  0  0  0  0  0  0  0  0  0  0
    1.8053  -14.4058   26.0640 N   0  0  0  0  0  0  0  0  0  0  0  0
    1.6856  -15.1277   27.2324 C   0  0  0  0  0  0  0  0  0  0  0  0
    2.8575  -15.6139   27.7580 C   0  0  0  0  0  0  0  0  0  0  0  0
    4.1616  -15.1379   26.7678 S   0  0  0  0  0  0  0  0  0  0  0  0
  2  1  1  1
  2  3  1  0
  3  4  2  0
  3  5  1  0
  5  6  1  0
  6  7  1  0
  6  8  1  0
  6  9  1  0
  9 10  1  0
  9 11  1  0
  9 12  1  0
  2 13  1  0
 13 14  2  0
 14 15  1  0
 15 16  2  0
 16 17  1  0
 17 13  1  0
M  END
>  <inchikey>  (614) 
HFWVVTWTNDQMBC-UHFFFAOYSA-N

>  <tags>  (614) 
fragmenstein_placed,CpKRS_FrAncestor_bulkdock_iter2

>  <ref_pdb>  (614) 
x0602b

>  <energy_score>  (614) 
-44.068441

>  <distance_score>  (614) 
0.820397

>  <HIPPO Pose ID>  (614) 
55771

>  <ref_mols>  (614) 
x0504b

>  <smiles>  (614) 
CC(C(=O)NC(C)(C)C(F)(F)F)c1nccs1

>  <HIPPO Compound ID>  (614) 
151447

>  <alias>  (614) 
HFWVVTWTNDQMBC-UHFFFAOYSA-N-P49

>  <subsites>  (614) 


>  <placement_batch>  (614) 
CpKRS_FrAncestor_bulkdock_iter2

>  <name>  (614) 
HFWVVTWTNDQMBC-UHFFFAOYSA-N-P49

$$$$
DKZGUKITCJXVHW-UHFFFAOYSA-N-P40
     RDKit          3D

 14 14  0  0  0  0  0  0  0  0999 V2000
    1.6782  -16.8840   25.7533 C   0  0  0  0  0  0  0  0  0  0  0  0
    2.0265  -15.4290   25.5221 C   0  0  0  0  0  0  0  0  0  0  0  0
    3.5171  -15.1532   25.6893 C   0  0  0  0  0  0  0  0  0  0  0  0
    4.3419  -15.9756   25.7726 O   0  0  0  0  0  0  0  0  0  0  0  0
    3.6334  -13.6023   25.7229 N   0  0  0  0  0  0  0  0  0  0  0  0
    4.8082  -12.7435   25.7706 C   0  0  0  0  0  0  0  0  0  0  0  0
    6.0933  -13.5516   25.9944 C   0  0  0  0  0  0  0  0  0  0  0  0
    4.5997  -11.7671   26.9392 C   0  0  0  0  0  0  0  0  0  0  0  0
    4.9069  -11.9712   24.4581 C   0  0  0  0  0  0  0  0  0  0  0  0
    4.5476  -12.5788   23.2486 C   0  0  0  0  0  0  0  0  0  0  0  0
    4.6202  -11.8384   22.0846 C   0  0  0  0  0  0  0  0  0  0  0  0
    5.0150  -10.5489   22.0293 N   0  0  0  0  0  0  0  0  0  0  0  0
    5.4150   -9.9936   23.1848 C   0  0  0  0  0  0  0  0  0  0  0  0
    5.3787  -10.6503   24.4022 C   0  0  0  0  0  0  0  0  0  0  0  0
  1  2  1  0
  2  3  1  0
  3  4  2  0
  3  5  1  0
  5  6  1  0
  6  7  1  0
  6  8  1  0
  6  9  1  0
  9 10  2  0
 10 11  1  0
 11 12  2  0
 12 13  1  0
 13 14  2  0
 14  9  1  0
M  END
>  <inchikey>  (615) 
DKZGUKITCJXVHW-UHFFFAOYSA-N

>  <tags>  (615) 
fragmenstein_placed,CpKRS_FrAncestor_bulkdock_iter2

>  <ref_pdb>  (615) 
x0602b

>  <energy_score>  (615) 
-2.990626

>  <distance_score>  (615) 
0.613011

>  <HIPPO Pose ID>  (615) 
55774

>  <ref_mols>  (615) 
x0602b

>  <smiles>  (615) 
CCC(=O)NC(C)(C)c1ccncc1

>  <HIPPO Compound ID>  (615) 
450805

>  <alias>  (615) 
DKZGUKITCJXVHW-UHFFFAOYSA-N-P40

>  <subsites>  (615) 


>  <placement_batch>  (615) 
CpKRS_FrAncestor_bulkdock_iter2

>  <name>  (615) 
DKZGUKITCJXVHW-UHFFFAOYSA-N-P40

$$$$
PIINFWOVJUJOLF-UHFFFAOYSA-N-P49
     RDKit          3D

 16 16  0  0  0  0  0  0  0  0999 V2000
    5.1237  -13.9988   24.4838 C   0  0  0  0  0  0  0  0  0  0  0  0
    3.7284  -13.6059   24.9623 C   0  0  1  0  0  0  0  0  0  0  0  0
    3.0867  -12.3485   24.2965 C   0  0  0  0  0  0  0  0  0  0  0  0
    1.9385  -12.2880   24.0783 O   0  0  0  0  0  0  0  0  0  0  0  0
    4.2075  -11.2741   24.1209 N   0  0  0  0  0  0  0  0  0  0  0  0
    4.1209   -9.8658   23.7274 C   0  0  1  0  0  0  0  0  0  0  0  0
    3.7834   -9.0533   24.9697 C   0  0  0  0  0  0  0  0  0  0  0  0
    5.3929   -9.2882   23.0885 C   0  0  0  0  0  0  0  0  0  0  0  0
    5.3113   -7.9452   22.9393 F   0  0  0  0  0  0  0  0  0  0  0  0
    5.6226   -9.8146   21.8677 F   0  0  0  0  0  0  0  0  0  0  0  0
    6.4645   -9.5393   23.8732 F   0  0  0  0  0  0  0  0  0  0  0  0
    2.8190  -14.8017   24.8026 C   0  0  0  0  0  0  0  0  0  0  0  0
    2.7052  -15.5213   23.7027 N   0  0  0  0  0  0  0  0  0  0  0  0
    1.9463  -16.6463   23.9527 C   0  0  0  0  0  0  0  0  0  0  0  0
    1.5252  -16.7990   25.2538 C   0  0  0  0  0  0  0  0  0  0  0  0
    1.9859  -15.4324   26.1766 S   0  0  0  0  0  0  0  0  0  0  0  0
  2  1  1  6
  2  3  1  0
  3  4  2  0
  3  5  1  0
  5  6  1  0
  6  7  1  1
  6  8  1  0
  8  9  1  0
  8 10  1  0
  8 11  1  0
  2 12  1  0
 12 13  2  0
 13 14  1  0
 14 15  2  0
 15 16  1  0
 16 12  1  0
M  END
>  <inchikey>  (616) 
PIINFWOVJUJOLF-UHFFFAOYSA-N

>  <tags>  (616) 
fragmenstein_placed,CpKRS_FrAncestor_bulkdock_iter2

>  <ref_pdb>  (616) 
x0602b

>  <energy_score>  (616) 
-54.224208

>  <distance_score>  (616) 
0.818123

>  <HIPPO Pose ID>  (616) 
55778

>  <ref_mols>  (616) 
x0504b

>  <smiles>  (616) 
CC(C(=O)NC(C)C(F)(F)F)c1nccs1

>  <HIPPO Compound ID>  (616) 
129445

>  <alias>  (616) 
PIINFWOVJUJOLF-UHFFFAOYSA-N-P49

>  <subsites>  (616) 


>  <placement_batch>  (616) 
CpKRS_FrAncestor_bulkdock_iter2

>  <name>  (616) 
PIINFWOVJUJOLF-UHFFFAOYSA-N-P49

$$$$
ISEMXKULAMITRC-VIFPVBQESA-N-P40
     RDKit          3D

 14 14  0  0  0  0  0  0  0  0999 V2000
    1.1083  -15.3634   25.1162 C   0  0  0  0  0  0  0  0  0  0  0  0
    2.0877  -16.3261   25.7684 C   0  0  0  0  0  0  0  0  0  0  0  0
    3.5727  -15.9773   25.6126 C   0  0  0  0  0  0  0  0  0  0  0  0
    4.3637  -16.7800   25.3035 O   0  0  0  0  0  0  0  0  0  0  0  0
    3.7467  -14.4725   25.9522 N   0  0  0  0  0  0  0  0  0  0  0  0
    4.9163  -13.6248   25.8886 C   0  0  1  0  0  0  0  0  0  0  0  0
    6.2261  -14.4030   25.7989 C   0  0  0  0  0  0  0  0  0  0  0  0
    4.7934  -12.6240   24.7583 C   0  0  0  0  0  0  0  0  0  0  0  0
    4.3611  -13.0208   23.4910 C   0  0  0  0  0  0  0  0  0  0  0  0
    4.3120  -12.0829   22.4776 C   0  0  0  0  0  0  0  0  0  0  0  0
    4.6501  -10.7841   22.6347 N   0  0  0  0  0  0  0  0  0  0  0  0
    5.1131  -10.4102   23.8475 C   0  0  0  0  0  0  0  0  0  0  0  0
    5.5813   -8.9933   23.9868 C   0  0  0  0  0  0  0  0  0  0  0  0
    5.1788  -11.2872   24.9308 C   0  0  0  0  0  0  0  0  0  0  0  0
  1  2  1  0
  2  3  1  0
  3  4  2  0
  3  5  1  0
  5  6  1  0
  6  7  1  6
  6  8  1  0
  8  9  2  0
  9 10  1  0
 10 11  2  0
 11 12  1  0
 12 13  1  0
 12 14  2  0
 14  8  1  0
M  END
>  <inchikey>  (617) 
ISEMXKULAMITRC-UHFFFAOYSA-N

>  <tags>  (617) 
fragmenstein_placed,CpKRS_FrAncestor_bulkdock_iter2

>  <ref_pdb>  (617) 
x0602b

>  <energy_score>  (617) 
-5.005759

>  <distance_score>  (617) 
0.571285

>  <HIPPO Pose ID>  (617) 
55810

>  <ref_mols>  (617) 
x0602b

>  <smiles>  (617) 
CCC(=O)N[C@@H](C)c1ccnc(C)c1

>  <HIPPO Compound ID>  (617) 
450812

>  <alias>  (617) 
ISEMXKULAMITRC-VIFPVBQESA-N-P40

>  <subsites>  (617) 


>  <placement_batch>  (617) 
CpKRS_FrAncestor_bulkdock_iter2

>  <name>  (617) 
ISEMXKULAMITRC-VIFPVBQESA-N-P40

$$$$
MUTNJSZVAFLWDQ-UHFFFAOYSA-N-P49
     RDKit          3D

 16 16  0  0  0  0  0  0  0  0999 V2000
    5.3103   -8.2930   23.3146 C   0  0  0  0  0  0  0  0  0  0  0  0
    4.3496   -9.1692   24.1025 C   0  0  0  0  0  0  0  0  0  0  0  0
    4.7796   -9.1996   25.3919 F   0  0  0  0  0  0  0  0  0  0  0  0
    3.1370   -8.5358   24.1144 F   0  0  0  0  0  0  0  0  0  0  0  0
    4.1580  -10.6176   23.5902 C   0  0  0  0  0  0  0  0  0  0  0  0
    5.4998  -11.2391   23.2880 C   0  0  0  0  0  0  0  0  0  0  0  0
    3.3674  -10.6151   22.3004 C   0  0  0  0  0  0  0  0  0  0  0  0
    3.4156  -11.4571   24.5286 N   0  0  0  0  0  0  0  0  0  0  0  0
    3.7271  -12.8691   25.0759 C   0  0  0  0  0  0  0  0  0  0  0  0
    4.6620  -13.5494   24.9230 O   0  0  0  0  0  0  0  0  0  0  0  0
    2.5788  -13.3814   25.8073 C   0  0  0  0  0  0  0  0  0  0  0  0
    2.4980  -14.5053   26.6136 C   0  0  0  0  0  0  0  0  0  0  0  0
    1.2213  -14.8362   27.0517 N   0  0  0  0  0  0  0  0  0  0  0  0
    0.3910  -13.9724   26.5293 C   0  0  0  0  0  0  0  0  0  0  0  0
   -1.3140  -14.1173   26.6126 Cl  0  0  0  0  0  0  0  0  0  0  0  0
    1.0252  -12.6733   25.6652 S   0  0  0  0  0  0  0  0  0  0  0  0
  1  2  1  0
  2  3  1  0
  2  4  1  0
  2  5  1  0
  5  6  1  0
  5  7  1  0
  5  8  1  0
  8  9  1  0
  9 10  2  0
  9 11  1  0
 11 12  2  0
 12 13  1  0
 13 14  2  0
 14 15  1  0
 14 16  1  0
 16 11  1  0
M  END
>  <inchikey>  (618) 
MUTNJSZVAFLWDQ-UHFFFAOYSA-N

>  <tags>  (618) 
fragmenstein_placed,CpKRS_FrAncestor_bulkdock_iter2

>  <ref_pdb>  (618) 
x0602b

>  <energy_score>  (618) 
-18.113329

>  <distance_score>  (618) 
0.915925

>  <HIPPO Pose ID>  (618) 
55820

>  <ref_mols>  (618) 
x0504b

>  <smiles>  (618) 
CC(F)(F)C(C)(C)NC(=O)c1cnc(Cl)s1

>  <HIPPO Compound ID>  (618) 
139442

>  <alias>  (618) 
MUTNJSZVAFLWDQ-UHFFFAOYSA-N-P49

>  <subsites>  (618) 


>  <placement_batch>  (618) 
CpKRS_FrAncestor_bulkdock_iter2

>  <name>  (618) 
MUTNJSZVAFLWDQ-UHFFFAOYSA-N-P49

$$$$
KHTPVLDNRIVRSB-UHFFFAOYSA-N-P49
     RDKit          3D

 15 15  0  0  0  0  0  0  0  0999 V2000
    5.3440   -8.7560   23.0862 C   0  0  0  0  0  0  0  0  0  0  0  0
    4.7431   -9.7143   24.1017 C   0  0  0  0  0  0  0  0  0  0  0  0
    4.2368   -8.9717   25.1280 F   0  0  0  0  0  0  0  0  0  0  0  0
    5.7664  -10.4213   24.6354 F   0  0  0  0  0  0  0  0  0  0  0  0
    3.6368  -10.6781   23.5754 C   0  0  0  0  0  0  0  0  0  0  0  0
    4.1058  -11.3784   22.2913 C   0  0  0  0  0  0  0  0  0  0  0  0
    2.3577   -9.8764   23.2900 C   0  0  0  0  0  0  0  0  0  0  0  0
    3.2857  -11.7112   24.5586 N   0  0  0  0  0  0  0  0  0  0  0  0
    3.9996  -13.0262   24.9273 C   0  0  0  0  0  0  0  0  0  0  0  0
    5.0182  -13.4595   24.5641 O   0  0  0  0  0  0  0  0  0  0  0  0
    3.1999  -13.7859   25.8908 C   0  0  0  0  0  0  0  0  0  0  0  0
    3.6004  -14.9027   26.6025 C   0  0  0  0  0  0  0  0  0  0  0  0
    2.6742  -15.4247   27.4857 N   0  0  0  0  0  0  0  0  0  0  0  0
    1.5775  -14.7098   27.4260 C   0  0  0  0  0  0  0  0  0  0  0  0
    1.5730  -13.4136   26.3077 S   0  0  0  0  0  0  0  0  0  0  0  0
  1  2  1  0
  2  3  1  0
  2  4  1  0
  2  5  1  0
  5  6  1  0
  5  7  1  0
  5  8  1  0
  8  9  1  0
  9 10  2  0
  9 11  1  0
 11 12  2  0
 12 13  1  0
 13 14  2  0
 14 15  1  0
 15 11  1  0
M  END
>  <inchikey>  (619) 
KHTPVLDNRIVRSB-UHFFFAOYSA-N

>  <tags>  (619) 
fragmenstein_placed,CpKRS_FrAncestor_bulkdock_iter2

>  <ref_pdb>  (619) 
x0602b

>  <energy_score>  (619) 
-29.743425

>  <distance_score>  (619) 
0.676293

>  <HIPPO Pose ID>  (619) 
55823

>  <ref_mols>  (619) 
x0504b

>  <smiles>  (619) 
CC(F)(F)C(C)(C)NC(=O)c1cncs1

>  <HIPPO Compound ID>  (619) 
322425

>  <alias>  (619) 
KHTPVLDNRIVRSB-UHFFFAOYSA-N-P49

>  <subsites>  (619) 


>  <placement_batch>  (619) 
CpKRS_FrAncestor_bulkdock_iter2

>  <name>  (619) 
KHTPVLDNRIVRSB-UHFFFAOYSA-N-P49

$$$$
MDYLKSCQXBFWAR-UHFFFAOYSA-N-P49
     RDKit          3D

 15 15  0  0  0  0  0  0  0  0999 V2000
    5.3122   -8.7712   23.1623 C   0  0  0  0  0  0  0  0  0  0  0  0
    4.7220   -9.7778   24.1376 C   0  0  0  0  0  0  0  0  0  0  0  0
    4.2190   -9.0850   25.1986 F   0  0  0  0  0  0  0  0  0  0  0  0
    5.7564  -10.4996   24.6296 F   0  0  0  0  0  0  0  0  0  0  0  0
    3.6213  -10.7263   23.5712 C   0  0  0  0  0  0  0  0  0  0  0  0
    2.3408   -9.9187   23.3078 C   0  0  0  0  0  0  0  0  0  0  0  0
    4.1048  -11.3728   22.2640 C   0  0  0  0  0  0  0  0  0  0  0  0
    3.2660  -11.8089   24.4975 N   0  0  0  0  0  0  0  0  0  0  0  0
    4.0470  -13.0664   24.9102 C   0  0  0  0  0  0  0  0  0  0  0  0
    5.0629  -13.4845   24.5242 O   0  0  0  0  0  0  0  0  0  0  0  0
    3.2284  -13.8147   25.8858 C   0  0  0  0  0  0  0  0  0  0  0  0
    3.6473  -14.9744   26.5157 C   0  0  0  0  0  0  0  0  0  0  0  0
    2.4460  -15.5318   27.6001 S   0  0  0  0  0  0  0  0  0  0  0  0
    1.4587  -14.2079   27.1537 C   0  0  0  0  0  0  0  0  0  0  0  0
    1.9356  -13.3915   26.2414 N   0  0  0  0  0  0  0  0  0  0  0  0
  1  2  1  0
  2  3  1  0
  2  4  1  0
  2  5  1  0
  5  6  1  0
  5  7  1  0
  5  8  1  0
  8  9  1  0
  9 10  2  0
  9 11  1  0
 11 12  2  0
 12 13  1  0
 13 14  1  0
 14 15  2  0
 15 11  1  0
M  END
>  <inchikey>  (620) 
MDYLKSCQXBFWAR-UHFFFAOYSA-N

>  <tags>  (620) 
fragmenstein_placed,CpKRS_FrAncestor_bulkdock_iter2

>  <ref_pdb>  (620) 
x0602b

>  <energy_score>  (620) 
-47.404619

>  <distance_score>  (620) 
0.824244

>  <HIPPO Pose ID>  (620) 
55826

>  <ref_mols>  (620) 
x0504b

>  <smiles>  (620) 
CC(F)(F)C(C)(C)NC(=O)c1cscn1

>  <HIPPO Compound ID>  (620) 
322424

>  <alias>  (620) 
MDYLKSCQXBFWAR-UHFFFAOYSA-N-P49

>  <subsites>  (620) 


>  <placement_batch>  (620) 
CpKRS_FrAncestor_bulkdock_iter2

>  <name>  (620) 
MDYLKSCQXBFWAR-UHFFFAOYSA-N-P49

$$$$
AURICWLOCHIQMD-UHFFFAOYSA-N-P49
     RDKit          3D

 16 16  0  0  0  0  0  0  0  0999 V2000
    5.5278   -8.8985   23.0896 C   0  0  0  0  0  0  0  0  0  0  0  0
    4.9678   -9.9306   24.0542 C   0  0  0  0  0  0  0  0  0  0  0  0
    5.9854  -10.7566   24.4051 F   0  0  0  0  0  0  0  0  0  0  0  0
    4.6133   -9.2762   25.1970 F   0  0  0  0  0  0  0  0  0  0  0  0
    3.7527  -10.7654   23.5506 C   0  0  0  0  0  0  0  0  0  0  0  0
    4.1097  -11.4742   22.2378 C   0  0  0  0  0  0  0  0  0  0  0  0
    2.5417   -9.8463   23.3291 C   0  0  0  0  0  0  0  0  0  0  0  0
    3.3603  -11.7810   24.5336 N   0  0  0  0  0  0  0  0  0  0  0  0
    4.0124  -13.1239   24.8956 C   0  0  0  0  0  0  0  0  0  0  0  0
    5.0062  -13.6033   24.5269 O   0  0  0  0  0  0  0  0  0  0  0  0
    3.1242  -13.8050   25.8568 C   0  0  0  0  0  0  0  0  0  0  0  0
    1.8622  -13.2589   26.1822 N   0  0  0  0  0  0  0  0  0  0  0  0
    1.3006  -14.0045   27.1070 C   0  0  0  0  0  0  0  0  0  0  0  0
    2.1562  -15.4021   27.5954 S   0  0  0  0  0  0  0  0  0  0  0  0
    3.4052  -14.9782   26.5234 C   0  0  0  0  0  0  0  0  0  0  0  0
    4.7816  -15.9902   26.4243 Cl  0  0  0  0  0  0  0  0  0  0  0  0
  1  2  1  0
  2  3  1  0
  2  4  1  0
  2  5  1  0
  5  6  1  0
  5  7  1  0
  5  8  1  0
  8  9  1  0
  9 10  2  0
  9 11  1  0
 11 12  1  0
 12 13  2  0
 13 14  1  0
 14 15  1  0
 15 16  1  0
 15 11  2  0
M  END
>  <inchikey>  (621) 
AURICWLOCHIQMD-UHFFFAOYSA-N

>  <tags>  (621) 
fragmenstein_placed,CpKRS_FrAncestor_bulkdock_iter2

>  <ref_pdb>  (621) 
x0602b

>  <energy_score>  (621) 
-71.368076

>  <distance_score>  (621) 
0.445138

>  <HIPPO Pose ID>  (621) 
55829

>  <ref_mols>  (621) 
x0504b

>  <smiles>  (621) 
CC(F)(F)C(C)(C)NC(=O)c1ncsc1Cl

>  <HIPPO Compound ID>  (621) 
122184

>  <alias>  (621) 
AURICWLOCHIQMD-UHFFFAOYSA-N-P49

>  <subsites>  (621) 


>  <placement_batch>  (621) 
CpKRS_FrAncestor_bulkdock_iter2

>  <name>  (621) 
AURICWLOCHIQMD-UHFFFAOYSA-N-P49

$$$$
KRZKLFPPTQAYMV-UHFFFAOYSA-N-P47
     RDKit          3D

 16 16  0  0  0  0  0  0  0  0999 V2000
    3.8818    9.0465   40.5805 C   0  0  0  0  0  0  0  0  0  0  0  0
    3.6434    7.9151   41.5587 C   0  0  0  0  0  0  0  0  0  0  0  0
    3.9109    6.7470   40.9168 F   0  0  0  0  0  0  0  0  0  0  0  0
    4.5870    8.0135   42.5437 F   0  0  0  0  0  0  0  0  0  0  0  0
    2.2444    7.8584   42.2405 C   0  0  0  0  0  0  0  0  0  0  0  0
    1.8669    9.2323   42.8182 C   0  0  0  0  0  0  0  0  0  0  0  0
    1.1593    7.4806   41.2232 C   0  0  0  0  0  0  0  0  0  0  0  0
    2.3088    6.8615   43.3335 N   0  0  0  0  0  0  0  0  0  0  0  0
    2.5664    5.3398   43.2886 C   0  0  0  0  0  0  0  0  0  0  0  0
    2.6913    4.6225   42.3799 O   0  0  0  0  0  0  0  0  0  0  0  0
    2.7042    4.7730   44.6310 C   0  0  0  0  0  0  0  0  0  0  0  0
    1.9636    5.4620   46.0158 S   0  0  0  0  0  0  0  0  0  0  0  0
    2.5276    4.1521   46.9640 C   0  0  0  0  0  0  0  0  0  0  0  0
    3.2702    3.2677   46.3410 N   0  0  0  0  0  0  0  0  0  0  0  0
    3.3740    3.6126   45.0017 C   0  0  0  0  0  0  0  0  0  0  0  0
    4.3052    2.5937   43.9749 Cl  0  0  0  0  0  0  0  0  0  0  0  0
  1  2  1  0
  2  3  1  0
  2  4  1  0
  2  5  1  0
  5  6  1  0
  5  7  1  0
  5  8  1  0
  8  9  1  0
  9 10  2  0
  9 11  1  0
 11 12  1  0
 12 13  1  0
 13 14  2  0
 14 15  1  0
 15 16  1  0
 15 11  2  0
M  END
>  <inchikey>  (622) 
KRZKLFPPTQAYMV-UHFFFAOYSA-N

>  <tags>  (622) 
fragmenstein_placed,CpKRS_FrAncestor_bulkdock_iter2

>  <ref_pdb>  (622) 
x0602b

>  <energy_score>  (622) 
-42.687569

>  <distance_score>  (622) 
0.626332

>  <HIPPO Pose ID>  (622) 
55833

>  <ref_mols>  (622) 
x0504c

>  <smiles>  (622) 
CC(F)(F)C(C)(C)NC(=O)c1scnc1Cl

>  <HIPPO Compound ID>  (622) 
139437

>  <alias>  (622) 
KRZKLFPPTQAYMV-UHFFFAOYSA-N-P47

>  <subsites>  (622) 


>  <placement_batch>  (622) 
CpKRS_FrAncestor_bulkdock_iter2

>  <name>  (622) 
KRZKLFPPTQAYMV-UHFFFAOYSA-N-P47

$$$$
MBAGKAOSYNTBCG-UHFFFAOYSA-N-P48
     RDKit          3D

 14 14  0  0  0  0  0  0  0  0999 V2000
    5.1697   -9.4529   23.9357 C   0  0  0  0  0  0  0  0  0  0  0  0
    4.5396   -9.9492   22.6535 C   0  0  0  0  0  0  0  0  0  0  0  0
    3.2617   -9.4625   22.5991 F   0  0  0  0  0  0  0  0  0  0  0  0
    5.1888   -9.3971   21.5967 F   0  0  0  0  0  0  0  0  0  0  0  0
    4.5304  -11.4692   22.4935 C   0  0  0  0  0  0  0  0  0  0  0  0
    3.8165  -12.1464   23.5473 N   0  0  0  0  0  0  0  0  0  0  0  0
    4.3358  -12.9960   24.7212 C   0  0  0  0  0  0  0  0  0  0  0  0
    5.4246  -13.2194   25.0667 O   0  0  0  0  0  0  0  0  0  0  0  0
    3.2027  -13.5301   25.4758 C   0  0  0  0  0  0  0  0  0  0  0  0
    3.1985  -14.4795   26.4843 C   0  0  0  0  0  0  0  0  0  0  0  0
    1.9525  -14.8062   27.0057 N   0  0  0  0  0  0  0  0  0  0  0  0
    1.0469  -14.0802   26.3968 C   0  0  0  0  0  0  0  0  0  0  0  0
   -0.8330  -14.2726   26.6725 Br  0  0  0  0  0  0  0  0  0  0  0  0
    1.5989  -12.9744   25.2351 S   0  0  0  0  0  0  0  0  0  0  0  0
  1  2  1  0
  2  3  1  0
  2  4  1  0
  2  5  1  0
  5  6  1  0
  6  7  1  0
  7  8  2  0
  7  9  1  0
  9 10  2  0
 10 11  1  0
 11 12  2  0
 12 13  1  0
 12 14  1  0
 14  9  1  0
M  END
>  <inchikey>  (623) 
MBAGKAOSYNTBCG-UHFFFAOYSA-N

>  <tags>  (623) 
fragmenstein_placed,CpKRS_FrAncestor_bulkdock_iter2

>  <ref_pdb>  (623) 
x0602b

>  <energy_score>  (623) 
-23.038006

>  <distance_score>  (623) 
0.750725

>  <HIPPO Pose ID>  (623) 
55838

>  <ref_mols>  (623) 
x0504a

>  <smiles>  (623) 
CC(F)(F)CNC(=O)c1cnc(Br)s1

>  <HIPPO Compound ID>  (623) 
450814

>  <alias>  (623) 
MBAGKAOSYNTBCG-UHFFFAOYSA-N-P48

>  <subsites>  (623) 


>  <placement_batch>  (623) 
CpKRS_FrAncestor_bulkdock_iter2

>  <name>  (623) 
MBAGKAOSYNTBCG-UHFFFAOYSA-N-P48

$$$$
XKMINXGXSCDJEB-UHFFFAOYSA-N-P49
     RDKit          3D

 17 17  0  0  0  0  0  0  0  0999 V2000
    5.4896   -8.6721   22.6567 C   0  0  0  0  0  0  0  0  0  0  0  0
    4.5478   -9.5976   23.3896 C   0  0  0  0  0  0  0  0  0  0  0  0
    4.8451   -9.5779   24.7146 F   0  0  0  0  0  0  0  0  0  0  0  0
    3.2835   -9.0954   23.2674 F   0  0  0  0  0  0  0  0  0  0  0  0
    4.5858  -11.0304   22.8506 C   0  0  0  0  0  0  0  0  0  0  0  0
    3.9523  -11.9788   23.7369 N   0  0  0  0  0  0  0  0  0  0  0  0
    4.4365  -13.3451   24.2483 C   0  0  0  0  0  0  0  0  0  0  0  0
    5.3874  -13.9578   23.9768 O   0  0  0  0  0  0  0  0  0  0  0  0
    3.5200  -13.8656   25.2580 C   0  0  0  0  0  0  0  0  0  0  0  0
    3.7238  -14.9489   26.0922 C   0  0  0  0  0  0  0  0  0  0  0  0
    2.7246  -15.2001   27.0128 N   0  0  0  0  0  0  0  0  0  0  0  0
    1.7758  -14.2919   26.8833 C   0  0  0  0  0  0  0  0  0  0  0  0
    0.5622  -14.1681   27.7243 C   0  0  0  0  0  0  0  0  0  0  0  0
    0.1799  -12.8799   27.9404 F   0  0  0  0  0  0  0  0  0  0  0  0
   -0.5370  -14.7539   27.1611 F   0  0  0  0  0  0  0  0  0  0  0  0
    0.6910  -14.7375   28.9519 F   0  0  0  0  0  0  0  0  0  0  0  0
    1.9929  -13.1753   25.5966 S   0  0  0  0  0  0  0  0  0  0  0  0
  1  2  1  0
  2  3  1  0
  2  4  1  0
  2  5  1  0
  5  6  1  0
  6  7  1  0
  7  8  2  0
  7  9  1  0
  9 10  2  0
 10 11  1  0
 11 12  2  0
 12 13  1  0
 13 14  1  0
 13 15  1  0
 13 16  1  0
 12 17  1  0
 17  9  1  0
M  END
>  <inchikey>  (624) 
XKMINXGXSCDJEB-UHFFFAOYSA-N

>  <tags>  (624) 
fragmenstein_placed,CpKRS_FrAncestor_bulkdock_iter2

>  <ref_pdb>  (624) 
x0602b

>  <energy_score>  (624) 
-12.445781

>  <distance_score>  (624) 
0.67388

>  <HIPPO Pose ID>  (624) 
55845

>  <ref_mols>  (624) 
x0504b

>  <smiles>  (624) 
CC(F)(F)CNC(=O)c1cnc(C(F)(F)F)s1

>  <HIPPO Compound ID>  (624) 
145400

>  <alias>  (624) 
XKMINXGXSCDJEB-UHFFFAOYSA-N-P49

>  <subsites>  (624) 


>  <placement_batch>  (624) 
CpKRS_FrAncestor_bulkdock_iter2

>  <name>  (624) 
XKMINXGXSCDJEB-UHFFFAOYSA-N-P49

$$$$
OCLYTQOGXDPFSC-UHFFFAOYSA-N-P49
     RDKit          3D

 14 14  0  0  0  0  0  0  0  0999 V2000
    5.5645   -8.6581   22.6439 C   0  0  0  0  0  0  0  0  0  0  0  0
    4.5810   -9.5033   23.4150 C   0  0  0  0  0  0  0  0  0  0  0  0
    4.8306   -9.3775   24.7441 F   0  0  0  0  0  0  0  0  0  0  0  0
    3.3310   -8.9901   23.2056 F   0  0  0  0  0  0  0  0  0  0  0  0
    4.6106  -10.9765   23.0026 C   0  0  0  0  0  0  0  0  0  0  0  0
    3.8654  -11.8060   23.9179 N   0  0  0  0  0  0  0  0  0  0  0  0
    4.2859  -13.0667   24.6930 C   0  0  0  0  0  0  0  0  0  0  0  0
    5.3218  -13.5910   24.7752 O   0  0  0  0  0  0  0  0  0  0  0  0
    3.1598  -13.5602   25.4833 C   0  0  0  0  0  0  0  0  0  0  0  0
    3.1417  -14.6033   26.3977 C   0  0  0  0  0  0  0  0  0  0  0  0
    1.9295  -14.8289   27.0375 N   0  0  0  0  0  0  0  0  0  0  0  0
    1.0770  -13.9474   26.5884 C   0  0  0  0  0  0  0  0  0  0  0  0
   -0.5563  -13.8688   27.0823 Cl  0  0  0  0  0  0  0  0  0  0  0  0
    1.6016  -12.8423   25.4288 S   0  0  0  0  0  0  0  0  0  0  0  0
  1  2  1  0
  2  3  1  0
  2  4  1  0
  2  5  1  0
  5  6  1  0
  6  7  1  0
  7  8  2  0
  7  9  1  0
  9 10  2  0
 10 11  1  0
 11 12  2  0
 12 13  1  0
 12 14  1  0
 14  9  1  0
M  END
>  <inchikey>  (625) 
OCLYTQOGXDPFSC-UHFFFAOYSA-N

>  <tags>  (625) 
fragmenstein_placed,CpKRS_FrAncestor_bulkdock_iter2

>  <ref_pdb>  (625) 
x0602b

>  <energy_score>  (625) 
-36.35473

>  <distance_score>  (625) 
0.606964

>  <HIPPO Pose ID>  (625) 
55848

>  <ref_mols>  (625) 
x0504b

>  <smiles>  (625) 
CC(F)(F)CNC(=O)c1cnc(Cl)s1

>  <HIPPO Compound ID>  (625) 
450815

>  <alias>  (625) 
OCLYTQOGXDPFSC-UHFFFAOYSA-N-P49

>  <subsites>  (625) 


>  <placement_batch>  (625) 
CpKRS_FrAncestor_bulkdock_iter2

>  <name>  (625) 
OCLYTQOGXDPFSC-UHFFFAOYSA-N-P49

$$$$
DMBMFKZEJMJKFN-UHFFFAOYSA-N-P47
     RDKit          3D

 13 13  0  0  0  0  0  0  0  0999 V2000
    3.4937    8.8279   40.7521 C   0  0  0  0  0  0  0  0  0  0  0  0
    3.5875    7.6326   41.6737 C   0  0  0  0  0  0  0  0  0  0  0  0
    4.1820    6.6164   41.0005 F   0  0  0  0  0  0  0  0  0  0  0  0
    4.4164    7.9401   42.7087 F   0  0  0  0  0  0  0  0  0  0  0  0
    2.2244    7.1993   42.2206 C   0  0  0  0  0  0  0  0  0  0  0  0
    2.3234    6.2708   43.3253 N   0  0  0  0  0  0  0  0  0  0  0  0
    3.0268    4.9110   43.4247 C   0  0  0  0  0  0  0  0  0  0  0  0
    3.5740    4.2841   42.6120 O   0  0  0  0  0  0  0  0  0  0  0  0
    2.9593    4.3929   44.7879 C   0  0  0  0  0  0  0  0  0  0  0  0
    3.5547    3.2367   45.2570 C   0  0  0  0  0  0  0  0  0  0  0  0
    3.3399    2.9383   46.5876 N   0  0  0  0  0  0  0  0  0  0  0  0
    2.5840    3.8755   47.1163 C   0  0  0  0  0  0  0  0  0  0  0  0
    2.1135    5.1481   46.0721 S   0  0  0  0  0  0  0  0  0  0  0  0
  1  2  1  0
  2  3  1  0
  2  4  1  0
  2  5  1  0
  5  6  1  0
  6  7  1  0
  7  8  2  0
  7  9  1  0
  9 10  2  0
 10 11  1  0
 11 12  2  0
 12 13  1  0
 13  9  1  0
M  END
>  <inchikey>  (626) 
DMBMFKZEJMJKFN-UHFFFAOYSA-N

>  <tags>  (626) 
fragmenstein_placed,CpKRS_FrAncestor_bulkdock_iter2

>  <ref_pdb>  (626) 
x0602b

>  <energy_score>  (626) 
-27.054497

>  <distance_score>  (626) 
0.361509

>  <HIPPO Pose ID>  (626) 
55852

>  <ref_mols>  (626) 
x0504c

>  <smiles>  (626) 
CC(F)(F)CNC(=O)c1cncs1

>  <HIPPO Compound ID>  (626) 
450816

>  <alias>  (626) 
DMBMFKZEJMJKFN-UHFFFAOYSA-N-P47

>  <subsites>  (626) 


>  <placement_batch>  (626) 
CpKRS_FrAncestor_bulkdock_iter2

>  <name>  (626) 
DMBMFKZEJMJKFN-UHFFFAOYSA-N-P47

$$$$
CHZQAPKYAKCARP-UHFFFAOYSA-N-P47
     RDKit          3D

 13 13  0  0  0  0  0  0  0  0999 V2000
    3.4610    9.0343   40.8358 C   0  0  0  0  0  0  0  0  0  0  0  0
    3.5557    7.7631   41.6484 C   0  0  0  0  0  0  0  0  0  0  0  0
    4.1169    6.8049   40.8686 F   0  0  0  0  0  0  0  0  0  0  0  0
    4.4177    7.9671   42.6825 F   0  0  0  0  0  0  0  0  0  0  0  0
    2.1962    7.3036   42.1836 C   0  0  0  0  0  0  0  0  0  0  0  0
    2.3002    6.2990   43.2161 N   0  0  0  0  0  0  0  0  0  0  0  0
    3.0823    4.9860   43.2496 C   0  0  0  0  0  0  0  0  0  0  0  0
    3.7091    4.4607   42.4237 O   0  0  0  0  0  0  0  0  0  0  0  0
    2.9829    4.4204   44.6017 C   0  0  0  0  0  0  0  0  0  0  0  0
    3.6309    3.2637   44.9901 C   0  0  0  0  0  0  0  0  0  0  0  0
    3.2792    2.9200   46.6208 S   0  0  0  0  0  0  0  0  0  0  0  0
    2.3084    4.3222   46.7108 C   0  0  0  0  0  0  0  0  0  0  0  0
    2.2310    5.0354   45.6092 N   0  0  0  0  0  0  0  0  0  0  0  0
  1  2  1  0
  2  3  1  0
  2  4  1  0
  2  5  1  0
  5  6  1  0
  6  7  1  0
  7  8  2  0
  7  9  1  0
  9 10  2  0
 10 11  1  0
 11 12  1  0
 12 13  2  0
 13  9  1  0
M  END
>  <inchikey>  (627) 
CHZQAPKYAKCARP-UHFFFAOYSA-N

>  <tags>  (627) 
fragmenstein_placed,CpKRS_FrAncestor_bulkdock_iter2

>  <ref_pdb>  (627) 
x0602b

>  <energy_score>  (627) 
-54.592631

>  <distance_score>  (627) 
0.422771

>  <HIPPO Pose ID>  (627) 
55855

>  <ref_mols>  (627) 
x0504c

>  <smiles>  (627) 
CC(F)(F)CNC(=O)c1cscn1

>  <HIPPO Compound ID>  (627) 
450817

>  <alias>  (627) 
CHZQAPKYAKCARP-UHFFFAOYSA-N-P47

>  <subsites>  (627) 


>  <placement_batch>  (627) 
CpKRS_FrAncestor_bulkdock_iter2

>  <name>  (627) 
CHZQAPKYAKCARP-UHFFFAOYSA-N-P47

$$$$
IEHFTLZYMVKUOB-UHFFFAOYSA-N-P48
     RDKit          3D

 15 15  0  0  0  0  0  0  0  0999 V2000
    5.0028   -9.7025   23.9675 C   0  0  0  0  0  0  0  0  0  0  0  0
    4.7367  -10.5045   22.7149 C   0  0  0  0  0  0  0  0  0  0  0  0
    5.7856  -11.3067   22.4366 F   0  0  0  0  0  0  0  0  0  0  0  0
    4.6608   -9.6186   21.6780 F   0  0  0  0  0  0  0  0  0  0  0  0
    3.4434  -11.3185   22.7353 C   0  0  0  0  0  0  0  0  0  0  0  0
    3.1386  -12.0953   23.9086 N   0  0  0  0  0  0  0  0  0  0  0  0
    4.0229  -13.0352   24.7400 C   0  0  0  0  0  0  0  0  0  0  0  0
    5.1575  -13.2724   24.6559 O   0  0  0  0  0  0  0  0  0  0  0  0
    3.1359  -13.6852   25.7181 C   0  0  0  0  0  0  0  0  0  0  0  0
    1.7871  -13.2898   25.7809 N   0  0  0  0  0  0  0  0  0  0  0  0
    1.1906  -13.9911   26.7093 C   0  0  0  0  0  0  0  0  0  0  0  0
   -0.4878  -13.8236   26.9936 Cl  0  0  0  0  0  0  0  0  0  0  0  0
    2.1167  -15.1227   27.5618 S   0  0  0  0  0  0  0  0  0  0  0  0
    3.4520  -14.7045   26.5909 C   0  0  0  0  0  0  0  0  0  0  0  0
    4.9130  -15.5706   26.7891 Cl  0  0  0  0  0  0  0  0  0  0  0  0
  1  2  1  0
  2  3  1  0
  2  4  1  0
  2  5  1  0
  5  6  1  0
  6  7  1  0
  7  8  2  0
  7  9  1  0
  9 10  1  0
 10 11  2  0
 11 12  1  0
 11 13  1  0
 13 14  1  0
 14 15  1  0
 14  9  2  0
M  END
>  <inchikey>  (628) 
IEHFTLZYMVKUOB-UHFFFAOYSA-N

>  <tags>  (628) 
fragmenstein_placed,CpKRS_FrAncestor_bulkdock_iter2

>  <ref_pdb>  (628) 
x0602b

>  <energy_score>  (628) 
-45.401735

>  <distance_score>  (628) 
0.518647

>  <HIPPO Pose ID>  (628) 
55856

>  <ref_mols>  (628) 
x0504a

>  <smiles>  (628) 
CC(F)(F)CNC(=O)c1nc(Cl)sc1Cl

>  <HIPPO Compound ID>  (628) 
303307

>  <alias>  (628) 
IEHFTLZYMVKUOB-UHFFFAOYSA-N-P48

>  <subsites>  (628) 


>  <placement_batch>  (628) 
CpKRS_FrAncestor_bulkdock_iter2

>  <name>  (628) 
IEHFTLZYMVKUOB-UHFFFAOYSA-N-P48

$$$$
YCGURDJWFGVQDT-UHFFFAOYSA-N-P49
     RDKit          3D

 14 14  0  0  0  0  0  0  0  0999 V2000
    5.4222   -9.0354   22.7730 C   0  0  0  0  0  0  0  0  0  0  0  0
    4.8577   -9.9860   23.8078 C   0  0  0  0  0  0  0  0  0  0  0  0
    5.8621  -10.7505   24.2973 F   0  0  0  0  0  0  0  0  0  0  0  0
    4.3870   -9.2569   24.8547 F   0  0  0  0  0  0  0  0  0  0  0  0
    3.7311  -10.8611   23.2478 C   0  0  0  0  0  0  0  0  0  0  0  0
    3.2468  -11.8343   24.1968 N   0  0  0  0  0  0  0  0  0  0  0  0
    3.8093  -13.2038   24.5937 C   0  0  0  0  0  0  0  0  0  0  0  0
    4.7096  -13.8014   24.1654 O   0  0  0  0  0  0  0  0  0  0  0  0
    2.9554  -13.7445   25.6744 C   0  0  0  0  0  0  0  0  0  0  0  0
    1.7454  -13.0996   26.0128 N   0  0  0  0  0  0  0  0  0  0  0  0
    1.1842  -13.7315   27.0185 C   0  0  0  0  0  0  0  0  0  0  0  0
    1.9847  -15.1269   27.5928 S   0  0  0  0  0  0  0  0  0  0  0  0
    3.2156  -14.8597   26.4463 C   0  0  0  0  0  0  0  0  0  0  0  0
    4.7376  -15.9974   26.3410 Br  0  0  0  0  0  0  0  0  0  0  0  0
  1  2  1  0
  2  3  1  0
  2  4  1  0
  2  5  1  0
  5  6  1  0
  6  7  1  0
  7  8  2  0
  7  9  1  0
  9 10  1  0
 10 11  2  0
 11 12  1  0
 12 13  1  0
 13 14  1  0
 13  9  2  0
M  END
>  <inchikey>  (629) 
YCGURDJWFGVQDT-UHFFFAOYSA-N

>  <tags>  (629) 
fragmenstein_placed,CpKRS_FrAncestor_bulkdock_iter2

>  <ref_pdb>  (629) 
x0602b

>  <energy_score>  (629) 
-68.348843

>  <distance_score>  (629) 
0.474021

>  <HIPPO Pose ID>  (629) 
55860

>  <ref_mols>  (629) 
x0504b

>  <smiles>  (629) 
CC(F)(F)CNC(=O)c1ncsc1Br

>  <HIPPO Compound ID>  (629) 
450818

>  <alias>  (629) 
YCGURDJWFGVQDT-UHFFFAOYSA-N-P49

>  <subsites>  (629) 


>  <placement_batch>  (629) 
CpKRS_FrAncestor_bulkdock_iter2

>  <name>  (629) 
YCGURDJWFGVQDT-UHFFFAOYSA-N-P49

$$$$
KWGZZKWUQUSRIC-UHFFFAOYSA-N-P49
     RDKit          3D

 17 17  0  0  0  0  0  0  0  0999 V2000
    5.3645   -8.9108   22.6347 C   0  0  0  0  0  0  0  0  0  0  0  0
    4.4211   -9.7202   23.4979 C   0  0  0  0  0  0  0  0  0  0  0  0
    4.8562   -9.6827   24.7830 F   0  0  0  0  0  0  0  0  0  0  0  0
    3.2056   -9.0982   23.4780 F   0  0  0  0  0  0  0  0  0  0  0  0
    4.2701  -11.1668   23.0143 C   0  0  0  0  0  0  0  0  0  0  0  0
    3.6154  -12.0421   23.9620 N   0  0  0  0  0  0  0  0  0  0  0  0
    4.1300  -13.2939   24.6815 C   0  0  0  0  0  0  0  0  0  0  0  0
    5.1355  -13.8672   24.5708 O   0  0  0  0  0  0  0  0  0  0  0  0
    3.1032  -13.7344   25.6494 C   0  0  0  0  0  0  0  0  0  0  0  0
    1.8750  -13.0606   25.7455 N   0  0  0  0  0  0  0  0  0  0  0  0
    1.1410  -13.6157   26.6805 C   0  0  0  0  0  0  0  0  0  0  0  0
    1.8187  -14.9611   27.4787 S   0  0  0  0  0  0  0  0  0  0  0  0
    3.2462  -14.7937   26.5316 C   0  0  0  0  0  0  0  0  0  0  0  0
    4.3915  -15.7160   26.7208 C   0  0  0  0  0  0  0  0  0  0  0  0
    5.5887  -15.0888   26.8324 F   0  0  0  0  0  0  0  0  0  0  0  0
    4.5023  -16.6102   25.7053 F   0  0  0  0  0  0  0  0  0  0  0  0
    4.2623  -16.4420   27.8637 F   0  0  0  0  0  0  0  0  0  0  0  0
  1  2  1  0
  2  3  1  0
  2  4  1  0
  2  5  1  0
  5  6  1  0
  6  7  1  0
  7  8  2  0
  7  9  1  0
  9 10  1  0
 10 11  2  0
 11 12  1  0
 12 13  1  0
 13 14  1  0
 14 15  1  0
 14 16  1  0
 14 17  1  0
 13  9  2  0
M  END
>  <inchikey>  (630) 
KWGZZKWUQUSRIC-UHFFFAOYSA-N

>  <tags>  (630) 
fragmenstein_placed,CpKRS_FrAncestor_bulkdock_iter2

>  <ref_pdb>  (630) 
x0602b

>  <energy_score>  (630) 
-33.924597

>  <distance_score>  (630) 
0.473221

>  <HIPPO Pose ID>  (630) 
55863

>  <ref_mols>  (630) 
x0504b

>  <smiles>  (630) 
CC(F)(F)CNC(=O)c1ncsc1C(F)(F)F

>  <HIPPO Compound ID>  (630) 
145398

>  <alias>  (630) 
KWGZZKWUQUSRIC-UHFFFAOYSA-N-P49

>  <subsites>  (630) 


>  <placement_batch>  (630) 
CpKRS_FrAncestor_bulkdock_iter2

>  <name>  (630) 
KWGZZKWUQUSRIC-UHFFFAOYSA-N-P49

$$$$
WHXZIHMVIDARGA-UHFFFAOYSA-N-P47
     RDKit          3D

 14 14  0  0  0  0  0  0  0  0999 V2000
    3.4738    9.1750   40.9078 C   0  0  0  0  0  0  0  0  0  0  0  0
    3.5254    7.8695   41.6659 C   0  0  0  0  0  0  0  0  0  0  0  0
    3.9825    6.9108   40.8214 F   0  0  0  0  0  0  0  0  0  0  0  0
    4.4460    7.9729   42.6632 F   0  0  0  0  0  0  0  0  0  0  0  0
    2.1677    7.4727   42.2555 C   0  0  0  0  0  0  0  0  0  0  0  0
    2.2749    6.4286   43.2480 N   0  0  0  0  0  0  0  0  0  0  0  0
    2.9929    5.0804   43.1976 C   0  0  0  0  0  0  0  0  0  0  0  0
    3.5503    4.5565   42.3241 O   0  0  0  0  0  0  0  0  0  0  0  0
    2.9394    4.4812   44.5392 C   0  0  0  0  0  0  0  0  0  0  0  0
    2.2349    5.1026   45.5872 N   0  0  0  0  0  0  0  0  0  0  0  0
    2.3337    4.3732   46.6776 C   0  0  0  0  0  0  0  0  0  0  0  0
    3.2797    2.9571   46.5431 S   0  0  0  0  0  0  0  0  0  0  0  0
    3.5630    3.3111   44.9106 C   0  0  0  0  0  0  0  0  0  0  0  0
    4.5175    2.2326   43.9767 Cl  0  0  0  0  0  0  0  0  0  0  0  0
  1  2  1  0
  2  3  1  0
  2  4  1  0
  2  5  1  0
  5  6  1  0
  6  7  1  0
  7  8  2  0
  7  9  1  0
  9 10  1  0
 10 11  2  0
 11 12  1  0
 12 13  1  0
 13 14  1  0
 13  9  2  0
M  END
>  <inchikey>  (631) 
WHXZIHMVIDARGA-UHFFFAOYSA-N

>  <tags>  (631) 
fragmenstein_placed,CpKRS_FrAncestor_bulkdock_iter2

>  <ref_pdb>  (631) 
x0602b

>  <energy_score>  (631) 
-66.483795

>  <distance_score>  (631) 
0.441175

>  <HIPPO Pose ID>  (631) 
55867

>  <ref_mols>  (631) 
x0504c

>  <smiles>  (631) 
CC(F)(F)CNC(=O)c1ncsc1Cl

>  <HIPPO Compound ID>  (631) 
450819

>  <alias>  (631) 
WHXZIHMVIDARGA-UHFFFAOYSA-N-P47

>  <subsites>  (631) 


>  <placement_batch>  (631) 
CpKRS_FrAncestor_bulkdock_iter2

>  <name>  (631) 
WHXZIHMVIDARGA-UHFFFAOYSA-N-P47

$$$$
AAHKUKFEPFXUHV-UHFFFAOYSA-N-P49
     RDKit          3D

 15 15  0  0  0  0  0  0  0  0999 V2000
    5.5492   -8.6702   22.6935 C   0  0  0  0  0  0  0  0  0  0  0  0
    4.5633   -9.5630   23.4066 C   0  0  0  0  0  0  0  0  0  0  0  0
    3.3145   -9.0335   23.2333 F   0  0  0  0  0  0  0  0  0  0  0  0
    4.8132   -9.5303   24.7409 F   0  0  0  0  0  0  0  0  0  0  0  0
    4.5814  -11.0055   22.8910 C   0  0  0  0  0  0  0  0  0  0  0  0
    3.8408  -11.9002   23.7506 N   0  0  0  0  0  0  0  0  0  0  0  0
    4.3203  -13.0777   24.6197 C   0  0  0  0  0  0  0  0  0  0  0  0
    5.3745  -13.5600   24.7201 O   0  0  0  0  0  0  0  0  0  0  0  0
    3.2188  -13.5637   25.4558 C   0  0  0  0  0  0  0  0  0  0  0  0
    1.6944  -12.7619   25.4965 S   0  0  0  0  0  0  0  0  0  0  0  0
    1.1722  -13.8558   26.6619 C   0  0  0  0  0  0  0  0  0  0  0  0
   -0.4190  -13.6946   27.2618 Cl  0  0  0  0  0  0  0  0  0  0  0  0
    1.9881  -14.7999   27.0351 N   0  0  0  0  0  0  0  0  0  0  0  0
    3.1857  -14.6339   26.3449 C   0  0  0  0  0  0  0  0  0  0  0  0
    4.4562  -15.7455   26.6458 Cl  0  0  0  0  0  0  0  0  0  0  0  0
  1  2  1  0
  2  3  1  0
  2  4  1  0
  2  5  1  0
  5  6  1  0
  6  7  1  0
  7  8  2  0
  7  9  1  0
  9 10  1  0
 10 11  1  0
 11 12  1  0
 11 13  2  0
 13 14  1  0
 14 15  1  0
 14  9  2  0
M  END
>  <inchikey>  (632) 
AAHKUKFEPFXUHV-UHFFFAOYSA-N

>  <tags>  (632) 
fragmenstein_placed,CpKRS_FrAncestor_bulkdock_iter2

>  <ref_pdb>  (632) 
x0602b

>  <energy_score>  (632) 
-53.864604

>  <distance_score>  (632) 
0.728109

>  <HIPPO Pose ID>  (632) 
55869

>  <ref_mols>  (632) 
x0504b

>  <smiles>  (632) 
CC(F)(F)CNC(=O)c1sc(Cl)nc1Cl

>  <HIPPO Compound ID>  (632) 
303310

>  <alias>  (632) 
AAHKUKFEPFXUHV-UHFFFAOYSA-N-P49

>  <subsites>  (632) 


>  <placement_batch>  (632) 
CpKRS_FrAncestor_bulkdock_iter2

>  <name>  (632) 
AAHKUKFEPFXUHV-UHFFFAOYSA-N-P49

$$$$
DWQKWYXLKBCTGS-UHFFFAOYSA-N-P47
     RDKit          3D

 14 14  0  0  0  0  0  0  0  0999 V2000
    3.4796    8.9491   40.7388 C   0  0  0  0  0  0  0  0  0  0  0  0
    3.5349    7.8127   41.7322 C   0  0  0  0  0  0  0  0  0  0  0  0
    3.9154    6.6841   41.0845 F   0  0  0  0  0  0  0  0  0  0  0  0
    4.5139    8.0678   42.6431 F   0  0  0  0  0  0  0  0  0  0  0  0
    2.2143    7.6016   42.4734 C   0  0  0  0  0  0  0  0  0  0  0  0
    2.3388    6.6121   43.5192 N   0  0  0  0  0  0  0  0  0  0  0  0
    2.4815    5.0891   43.4365 C   0  0  0  0  0  0  0  0  0  0  0  0
    2.4448    4.3783   42.5185 O   0  0  0  0  0  0  0  0  0  0  0  0
    2.7258    4.5305   44.7565 C   0  0  0  0  0  0  0  0  0  0  0  0
    2.0175    5.1900   46.1718 S   0  0  0  0  0  0  0  0  0  0  0  0
    2.6777    3.9029   47.0846 C   0  0  0  0  0  0  0  0  0  0  0  0
    3.4348    3.0516   46.4291 N   0  0  0  0  0  0  0  0  0  0  0  0
    3.4579    3.4085   45.0939 C   0  0  0  0  0  0  0  0  0  0  0  0
    4.4735    2.3704   43.8660 Br  0  0  0  0  0  0  0  0  0  0  0  0
  1  2  1  0
  2  3  1  0
  2  4  1  0
  2  5  1  0
  5  6  1  0
  6  7  1  0
  7  8  2  0
  7  9  1  0
  9 10  1  0
 10 11  1  0
 11 12  2  0
 12 13  1  0
 13 14  1  0
 13  9  2  0
M  END
>  <inchikey>  (633) 
DWQKWYXLKBCTGS-UHFFFAOYSA-N

>  <tags>  (633) 
fragmenstein_placed,CpKRS_FrAncestor_bulkdock_iter2

>  <ref_pdb>  (633) 
x0602b

>  <energy_score>  (633) 
-30.989817

>  <distance_score>  (633) 
0.485178

>  <HIPPO Pose ID>  (633) 
55873

>  <ref_mols>  (633) 
x0504c

>  <smiles>  (633) 
CC(F)(F)CNC(=O)c1scnc1Br

>  <HIPPO Compound ID>  (633) 
450820

>  <alias>  (633) 
DWQKWYXLKBCTGS-UHFFFAOYSA-N-P47

>  <subsites>  (633) 


>  <placement_batch>  (633) 
CpKRS_FrAncestor_bulkdock_iter2

>  <name>  (633) 
DWQKWYXLKBCTGS-UHFFFAOYSA-N-P47

$$$$
RVCFFZFWZFBZSK-UHFFFAOYSA-N-P48
     RDKit          3D

 17 17  0  0  0  0  0  0  0  0999 V2000
    5.0081   -9.6995   23.9859 C   0  0  0  0  0  0  0  0  0  0  0  0
    4.3639  -10.0975   22.6772 C   0  0  0  0  0  0  0  0  0  0  0  0
    3.1033   -9.5684   22.6518 F   0  0  0  0  0  0  0  0  0  0  0  0
    5.0361   -9.4887   21.6629 F   0  0  0  0  0  0  0  0  0  0  0  0
    4.3128  -11.6036   22.4012 C   0  0  0  0  0  0  0  0  0  0  0  0
    3.6476  -12.3821   23.4168 N   0  0  0  0  0  0  0  0  0  0  0  0
    4.1892  -13.0018   24.7130 C   0  0  0  0  0  0  0  0  0  0  0  0
    5.2739  -13.0486   25.1298 O   0  0  0  0  0  0  0  0  0  0  0  0
    3.0733  -13.5739   25.4804 C   0  0  0  0  0  0  0  0  0  0  0  0
    1.5734  -12.7162   25.5331 S   0  0  0  0  0  0  0  0  0  0  0  0
    0.9521  -13.8319   26.6542 C   0  0  0  0  0  0  0  0  0  0  0  0
    1.7324  -14.8436   26.9287 N   0  0  0  0  0  0  0  0  0  0  0  0
    2.9684  -14.7149   26.2738 C   0  0  0  0  0  0  0  0  0  0  0  0
    3.9219  -15.8741   26.5354 C   0  0  0  0  0  0  0  0  0  0  0  0
    3.3704  -17.1154   25.7924 C   0  0  0  0  0  0  0  0  0  0  0  0
    3.9383  -16.1389   28.0624 C   0  0  0  0  0  0  0  0  0  0  0  0
    5.3615  -15.6785   26.0477 C   0  0  0  0  0  0  0  0  0  0  0  0
  1  2  1  0
  2  3  1  0
  2  4  1  0
  2  5  1  0
  5  6  1  0
  6  7  1  0
  7  8  2  0
  7  9  1  0
  9 10  1  0
 10 11  1  0
 11 12  2  0
 12 13  1  0
 13 14  1  0
 14 15  1  0
 14 16  1  0
 14 17  1  0
 13  9  2  0
M  END
>  <inchikey>  (634) 
RVCFFZFWZFBZSK-UHFFFAOYSA-N

>  <tags>  (634) 
fragmenstein_placed,CpKRS_FrAncestor_bulkdock_iter2

>  <ref_pdb>  (634) 
x0602b

>  <energy_score>  (634) 
-41.032449

>  <distance_score>  (634) 
0.704357

>  <HIPPO Pose ID>  (634) 
55874

>  <ref_mols>  (634) 
x0504a

>  <smiles>  (634) 
CC(F)(F)CNC(=O)c1scnc1C(C)(C)C

>  <HIPPO Compound ID>  (634) 
145396

>  <alias>  (634) 
RVCFFZFWZFBZSK-UHFFFAOYSA-N-P48

>  <subsites>  (634) 


>  <placement_batch>  (634) 
CpKRS_FrAncestor_bulkdock_iter2

>  <name>  (634) 
RVCFFZFWZFBZSK-UHFFFAOYSA-N-P48

$$$$
CCFZGEILKASJQN-UHFFFAOYSA-N-P49
     RDKit          3D

 17 17  0  0  0  0  0  0  0  0999 V2000
    5.4455   -8.8268   22.6552 C   0  0  0  0  0  0  0  0  0  0  0  0
    4.4660   -9.6324   23.4772 C   0  0  0  0  0  0  0  0  0  0  0  0
    3.2309   -9.0674   23.3312 F   0  0  0  0  0  0  0  0  0  0  0  0
    4.7872   -9.5191   24.7919 F   0  0  0  0  0  0  0  0  0  0  0  0
    4.4125  -11.1066   23.0693 C   0  0  0  0  0  0  0  0  0  0  0  0
    3.6884  -11.9380   24.0072 N   0  0  0  0  0  0  0  0  0  0  0  0
    3.9853  -13.3558   24.5202 C   0  0  0  0  0  0  0  0  0  0  0  0
    4.8160  -14.1100   24.2131 O   0  0  0  0  0  0  0  0  0  0  0  0
    3.0449  -13.7229   25.5822 C   0  0  0  0  0  0  0  0  0  0  0  0
    1.5422  -12.9191   25.8109 S   0  0  0  0  0  0  0  0  0  0  0  0
    1.2136  -13.9197   27.1499 C   0  0  0  0  0  0  0  0  0  0  0  0
    2.1047  -14.8378   27.4226 N   0  0  0  0  0  0  0  0  0  0  0  0
    3.1890  -14.7314   26.5310 C   0  0  0  0  0  0  0  0  0  0  0  0
    4.3737  -15.6477   26.6774 C   0  0  0  0  0  0  0  0  0  0  0  0
    4.3783  -16.2638   27.8914 F   0  0  0  0  0  0  0  0  0  0  0  0
    4.3844  -16.6321   25.7405 F   0  0  0  0  0  0  0  0  0  0  0  0
    5.5647  -15.0017   26.5912 F   0  0  0  0  0  0  0  0  0  0  0  0
  1  2  1  0
  2  3  1  0
  2  4  1  0
  2  5  1  0
  5  6  1  0
  6  7  1  0
  7  8  2  0
  7  9  1  0
  9 10  1  0
 10 11  1  0
 11 12  2  0
 12 13  1  0
 13 14  1  0
 14 15  1  0
 14 16  1  0
 14 17  1  0
 13  9  2  0
M  END
>  <inchikey>  (635) 
CCFZGEILKASJQN-UHFFFAOYSA-N

>  <tags>  (635) 
fragmenstein_placed,CpKRS_FrAncestor_bulkdock_iter2

>  <ref_pdb>  (635) 
x0602b

>  <energy_score>  (635) 
-33.663313

>  <distance_score>  (635) 
0.455365

>  <HIPPO Pose ID>  (635) 
55878

>  <ref_mols>  (635) 
x0504b

>  <smiles>  (635) 
CC(F)(F)CNC(=O)c1scnc1C(F)(F)F

>  <HIPPO Compound ID>  (635) 
145399

>  <alias>  (635) 
CCFZGEILKASJQN-UHFFFAOYSA-N-P49

>  <subsites>  (635) 


>  <placement_batch>  (635) 
CpKRS_FrAncestor_bulkdock_iter2

>  <name>  (635) 
CCFZGEILKASJQN-UHFFFAOYSA-N-P49

$$$$
NQGLETLSQIIQJY-UHFFFAOYSA-N-P47
     RDKit          3D

 14 14  0  0  0  0  0  0  0  0999 V2000
    3.4885    8.9350   40.7588 C   0  0  0  0  0  0  0  0  0  0  0  0
    3.5434    7.7784   41.7287 C   0  0  0  0  0  0  0  0  0  0  0  0
    4.5098    8.0206   42.6555 F   0  0  0  0  0  0  0  0  0  0  0  0
    3.9394    6.6666   41.0604 F   0  0  0  0  0  0  0  0  0  0  0  0
    2.2166    7.5377   42.4493 C   0  0  0  0  0  0  0  0  0  0  0  0
    2.3468    6.5586   43.5055 N   0  0  0  0  0  0  0  0  0  0  0  0
    2.5389    5.0398   43.4369 C   0  0  0  0  0  0  0  0  0  0  0  0
    2.5466    4.3225   42.5233 O   0  0  0  0  0  0  0  0  0  0  0  0
    2.7589    4.4938   44.7665 C   0  0  0  0  0  0  0  0  0  0  0  0
    2.0345    5.1715   46.1641 S   0  0  0  0  0  0  0  0  0  0  0  0
    2.6748    3.8916   47.0973 C   0  0  0  0  0  0  0  0  0  0  0  0
    3.4321    3.0285   46.4590 N   0  0  0  0  0  0  0  0  0  0  0  0
    3.4825    3.3671   45.1155 C   0  0  0  0  0  0  0  0  0  0  0  0
    4.4118    2.3987   44.0436 Cl  0  0  0  0  0  0  0  0  0  0  0  0
  1  2  1  0
  2  3  1  0
  2  4  1  0
  2  5  1  0
  5  6  1  0
  6  7  1  0
  7  8  2  0
  7  9  1  0
  9 10  1  0
 10 11  1  0
 11 12  2  0
 12 13  1  0
 13 14  1  0
 13  9  2  0
M  END
>  <inchikey>  (636) 
NQGLETLSQIIQJY-UHFFFAOYSA-N

>  <tags>  (636) 
fragmenstein_placed,CpKRS_FrAncestor_bulkdock_iter2

>  <ref_pdb>  (636) 
x0602b

>  <energy_score>  (636) 
-27.272926

>  <distance_score>  (636) 
0.444173

>  <HIPPO Pose ID>  (636) 
55882

>  <ref_mols>  (636) 
x0504c

>  <smiles>  (636) 
CC(F)(F)CNC(=O)c1scnc1Cl

>  <HIPPO Compound ID>  (636) 
450821

>  <alias>  (636) 
NQGLETLSQIIQJY-UHFFFAOYSA-N-P47

>  <subsites>  (636) 


>  <placement_batch>  (636) 
CpKRS_FrAncestor_bulkdock_iter2

>  <name>  (636) 
NQGLETLSQIIQJY-UHFFFAOYSA-N-P47

$$$$
DWSDYVNODTXUDC-UHFFFAOYSA-N-P49
     RDKit          3D

 13 13  0  0  0  0  0  0  0  0999 V2000
    5.4648   -8.8814   22.9323 C   0  0  0  0  0  0  0  0  0  0  0  0
    5.0502  -10.0002   23.8643 C   0  0  0  0  0  0  0  0  0  0  0  0
    6.1581  -10.4731   24.5030 F   0  0  0  0  0  0  0  0  0  0  0  0
    4.2764   -9.4719   24.8574 F   0  0  0  0  0  0  0  0  0  0  0  0
    4.2976  -11.1394   23.1276 C   0  0  0  0  0  0  0  0  0  0  0  0
    3.8783  -11.0316   22.0409 O   0  0  0  0  0  0  0  0  0  0  0  0
    4.2370  -12.3398   24.1175 N   0  0  0  0  0  0  0  0  0  0  0  0
    3.5707  -13.6068   24.0062 C   0  0  0  0  0  0  0  0  0  0  0  0
    2.9499  -13.9610   25.3120 C   0  0  0  0  0  0  0  0  0  0  0  0
    3.3483  -14.9020   26.2437 C   0  0  0  0  0  0  0  0  0  0  0  0
    2.5400  -15.0290   27.3572 N   0  0  0  0  0  0  0  0  0  0  0  0
    1.5598  -14.1608   27.2761 C   0  0  0  0  0  0  0  0  0  0  0  0
    1.5122  -13.1947   25.8632 S   0  0  0  0  0  0  0  0  0  0  0  0
  1  2  1  0
  2  3  1  0
  2  4  1  0
  2  5  1  0
  5  6  2  0
  5  7  1  0
  7  8  1  0
  8  9  1  0
  9 10  2  0
 10 11  1  0
 11 12  2  0
 12 13  1  0
 13  9  1  0
M  END
>  <inchikey>  (637) 
DWSDYVNODTXUDC-UHFFFAOYSA-N

>  <tags>  (637) 
fragmenstein_placed,CpKRS_FrAncestor_bulkdock_iter2

>  <ref_pdb>  (637) 
x0602b

>  <energy_score>  (637) 
-42.722794

>  <distance_score>  (637) 
0.883689

>  <HIPPO Pose ID>  (637) 
55886

>  <ref_mols>  (637) 
x0504b

>  <smiles>  (637) 
CC(F)(F)C(=O)NCc1cncs1

>  <HIPPO Compound ID>  (637) 
450823

>  <alias>  (637) 
DWSDYVNODTXUDC-UHFFFAOYSA-N-P49

>  <subsites>  (637) 


>  <placement_batch>  (637) 
CpKRS_FrAncestor_bulkdock_iter2

>  <name>  (637) 
DWSDYVNODTXUDC-UHFFFAOYSA-N-P49

$$$$
VIVSOSBDAZWTAB-UHFFFAOYSA-N-P40
     RDKit          3D

 15 15  0  0  0  0  0  0  0  0999 V2000
    1.4468  -16.9460   25.8311 C   0  0  0  0  0  0  0  0  0  0  0  0
    1.9162  -15.5251   25.6616 C   0  0  0  0  0  0  0  0  0  0  0  0
    1.4201  -15.0499   24.4755 F   0  0  0  0  0  0  0  0  0  0  0  0
    1.3003  -14.7397   26.6041 F   0  0  0  0  0  0  0  0  0  0  0  0
    3.4592  -15.3805   25.7145 C   0  0  0  0  0  0  0  0  0  0  0  0
    4.2185  -16.2508   25.5314 O   0  0  0  0  0  0  0  0  0  0  0  0
    3.7042  -13.8617   25.9491 N   0  0  0  0  0  0  0  0  0  0  0  0
    4.9131  -13.1004   25.9116 C   0  0  0  0  0  0  0  0  0  0  0  0
    4.8987  -12.2182   24.6956 C   0  0  0  0  0  0  0  0  0  0  0  0
    4.5856  -12.7426   23.4345 C   0  0  0  0  0  0  0  0  0  0  0  0
    4.5754  -11.8956   22.3412 C   0  0  0  0  0  0  0  0  0  0  0  0
    4.8441  -10.5755   22.4136 N   0  0  0  0  0  0  0  0  0  0  0  0
    5.1845  -10.1019   23.6269 C   0  0  0  0  0  0  0  0  0  0  0  0
    5.4660   -8.7947   23.7161 F   0  0  0  0  0  0  0  0  0  0  0  0
    5.2205  -10.8636   24.7830 C   0  0  0  0  0  0  0  0  0  0  0  0
  1  2  1  0
  2  3  1  0
  2  4  1  0
  2  5  1  0
  5  6  2  0
  5  7  1  0
  7  8  1  0
  8  9  1  0
  9 10  2  0
 10 11  1  0
 11 12  2  0
 12 13  1  0
 13 14  1  0
 13 15  2  0
 15  9  1  0
M  END
>  <inchikey>  (638) 
VIVSOSBDAZWTAB-UHFFFAOYSA-N

>  <tags>  (638) 
fragmenstein_placed,CpKRS_FrAncestor_bulkdock_iter2

>  <ref_pdb>  (638) 
x0602b

>  <energy_score>  (638) 
-15.213807

>  <distance_score>  (638) 
0.417192

>  <HIPPO Pose ID>  (638) 
55889

>  <ref_mols>  (638) 
x0602b

>  <smiles>  (638) 
CC(F)(F)C(=O)NCc1ccnc(F)c1

>  <HIPPO Compound ID>  (638) 
303267

>  <alias>  (638) 
VIVSOSBDAZWTAB-UHFFFAOYSA-N-P40

>  <subsites>  (638) 


>  <placement_batch>  (638) 
CpKRS_FrAncestor_bulkdock_iter2

>  <name>  (638) 
VIVSOSBDAZWTAB-UHFFFAOYSA-N-P40

$$$$
GOORUEFCGOTCMY-UHFFFAOYSA-N-P49
     RDKit          3D

 15 15  0  0  0  0  0  0  0  0999 V2000
    5.5442   -8.7814   22.8318 C   0  0  0  0  0  0  0  0  0  0  0  0
    5.1648   -9.8737   23.8057 C   0  0  0  0  0  0  0  0  0  0  0  0
    6.2763  -10.2698   24.4917 F   0  0  0  0  0  0  0  0  0  0  0  0
    4.3448   -9.3411   24.7589 F   0  0  0  0  0  0  0  0  0  0  0  0
    4.4801  -11.0766   23.1066 C   0  0  0  0  0  0  0  0  0  0  0  0
    3.9568  -11.0085   22.0630 O   0  0  0  0  0  0  0  0  0  0  0  0
    4.5676  -12.2587   24.1154 N   0  0  0  0  0  0  0  0  0  0  0  0
    4.1131  -13.6155   24.0024 C   0  0  0  0  0  0  0  0  0  0  0  0
    3.1945  -13.8868   25.1426 C   0  0  0  0  0  0  0  0  0  0  0  0
    1.6868  -13.0611   25.2561 S   0  0  0  0  0  0  0  0  0  0  0  0
    1.3661  -13.9064   26.6824 C   0  0  0  0  0  0  0  0  0  0  0  0
   -0.1197  -13.6311   27.4830 Cl  0  0  0  0  0  0  0  0  0  0  0  0
    2.2504  -14.7708   27.0998 N   0  0  0  0  0  0  0  0  0  0  0  0
    3.3209  -14.7511   26.2200 C   0  0  0  0  0  0  0  0  0  0  0  0
    4.6664  -15.7707   26.5017 Cl  0  0  0  0  0  0  0  0  0  0  0  0
  1  2  1  0
  2  3  1  0
  2  4  1  0
  2  5  1  0
  5  6  2  0
  5  7  1  0
  7  8  1  0
  8  9  1  0
  9 10  1  0
 10 11  1  0
 11 12  1  0
 11 13  2  0
 13 14  1  0
 14 15  1  0
 14  9  2  0
M  END
>  <inchikey>  (639) 
GOORUEFCGOTCMY-UHFFFAOYSA-N

>  <tags>  (639) 
fragmenstein_placed,CpKRS_FrAncestor_bulkdock_iter2

>  <ref_pdb>  (639) 
x0602b

>  <energy_score>  (639) 
-30.314013

>  <distance_score>  (639) 
0.739282

>  <HIPPO Pose ID>  (639) 
55891

>  <ref_mols>  (639) 
x0504b

>  <smiles>  (639) 
CC(F)(F)C(=O)NCc1sc(Cl)nc1Cl

>  <HIPPO Compound ID>  (639) 
305330

>  <alias>  (639) 
GOORUEFCGOTCMY-UHFFFAOYSA-N-P49

>  <subsites>  (639) 


>  <placement_batch>  (639) 
CpKRS_FrAncestor_bulkdock_iter2

>  <name>  (639) 
GOORUEFCGOTCMY-UHFFFAOYSA-N-P49

$$$$
DRKMDUPNDOMGEA-UHFFFAOYSA-N-P48
     RDKit          3D

 14 14  0  0  0  0  0  0  0  0999 V2000
    4.9544   -9.4545   24.1269 C   0  0  0  0  0  0  0  0  0  0  0  0
    4.2220  -10.0235   22.9322 C   0  0  0  0  0  0  0  0  0  0  0  0
    2.8897   -9.7387   23.0950 F   0  0  0  0  0  0  0  0  0  0  0  0
    4.6096   -9.3220   21.8281 F   0  0  0  0  0  0  0  0  0  0  0  0
    4.4954  -11.5392   22.7913 C   0  0  0  0  0  0  0  0  0  0  0  0
    5.3389  -11.9484   22.0921 O   0  0  0  0  0  0  0  0  0  0  0  0
    3.5182  -12.2933   23.7407 N   0  0  0  0  0  0  0  0  0  0  0  0
    3.4458  -13.6885   24.0913 C   0  0  0  0  0  0  0  0  0  0  0  0
    2.7541  -13.9017   25.3947 C   0  0  0  0  0  0  0  0  0  0  0  0
    1.1961  -13.2342   25.7055 S   0  0  0  0  0  0  0  0  0  0  0  0
    1.1601  -14.0311   27.2208 C   0  0  0  0  0  0  0  0  0  0  0  0
    2.2162  -14.7501   27.5185 N   0  0  0  0  0  0  0  0  0  0  0  0
    3.1250  -14.6728   26.4822 C   0  0  0  0  0  0  0  0  0  0  0  0
    4.7450  -15.6465   26.5982 Br  0  0  0  0  0  0  0  0  0  0  0  0
  1  2  1  0
  2  3  1  0
  2  4  1  0
  2  5  1  0
  5  6  2  0
  5  7  1  0
  7  8  1  0
  8  9  1  0
  9 10  1  0
 10 11  1  0
 11 12  2  0
 12 13  1  0
 13 14  1  0
 13  9  2  0
M  END
>  <inchikey>  (640) 
DRKMDUPNDOMGEA-UHFFFAOYSA-N

>  <tags>  (640) 
fragmenstein_placed,CpKRS_FrAncestor_bulkdock_iter2

>  <ref_pdb>  (640) 
x0602b

>  <energy_score>  (640) 
-42.296359

>  <distance_score>  (640) 
0.784164

>  <HIPPO Pose ID>  (640) 
55893

>  <ref_mols>  (640) 
x0504a

>  <smiles>  (640) 
CC(F)(F)C(=O)NCc1scnc1Br

>  <HIPPO Compound ID>  (640) 
450824

>  <alias>  (640) 
DRKMDUPNDOMGEA-UHFFFAOYSA-N-P48

>  <subsites>  (640) 


>  <placement_batch>  (640) 
CpKRS_FrAncestor_bulkdock_iter2

>  <name>  (640) 
DRKMDUPNDOMGEA-UHFFFAOYSA-N-P48

$$$$
ANCUKAQOICZANH-JGVFFNPUSA-N-P13
     RDKit          3D

 16 17  0  0  0  0  0  0  0  0999 V2000
    4.7506  -11.6414   21.7327 C   0  0  0  0  0  0  0  0  0  0  0  0
    5.4374  -10.5338   22.4865 C   0  0  1  0  0  0  0  0  0  0  0  0
    5.0342   -9.1260   22.0513 C   0  0  0  0  0  0  0  0  0  0  0  0
    5.3759   -8.2939   23.2756 C   0  0  0  0  0  0  0  0  0  0  0  0
    4.8232   -9.1517   24.4032 C   0  0  0  0  0  0  0  0  0  0  0  0
    5.2625  -10.5621   24.0119 C   0  0  1  0  0  0  0  0  0  0  0  0
    4.4175  -11.6078   24.5171 N   0  0  0  0  0  0  0  0  0  0  0  0
    4.7413  -13.0697   24.8750 C   0  0  0  0  0  0  0  0  0  0  0  0
    5.7256  -13.6787   24.7445 O   0  0  0  0  0  0  0  0  0  0  0  0
    3.5834  -13.6689   25.5689 C   0  0  0  0  0  0  0  0  0  0  0  0
    3.6582  -14.7308   26.5121 C   0  0  0  0  0  0  0  0  0  0  0  0
    2.4173  -14.7650   27.0764 C   0  0  0  0  0  0  0  0  0  0  0  0
    1.8538  -15.5806   28.4545 Cl  0  0  0  0  0  0  0  0  0  0  0  0
    1.6328  -13.9054   26.3737 N   0  0  0  0  0  0  0  0  0  0  0  0
    0.2112  -13.7053   26.4925 C   0  0  0  0  0  0  0  0  0  0  0  0
    2.3283  -13.1711   25.4777 N   0  0  0  0  0  0  0  0  0  0  0  0
  2  1  1  6
  2  3  1  0
  3  4  1  0
  4  5  1  0
  5  6  1  0
  6  7  1  6
  7  8  1  0
  8  9  2  0
  8 10  1  0
 10 11  1  0
 11 12  2  0
 12 13  1  0
 12 14  1  0
 14 15  1  0
 14 16  1  0
  6  2  1  0
 16 10  2  0
M  END
>  <inchikey>  (641) 
ANCUKAQOICZANH-UHFFFAOYSA-N

>  <tags>  (641) 
fragmenstein_placed,CpKRS_FrAncestor_bulkdock_iter2

>  <ref_pdb>  (641) 
x0602b

>  <energy_score>  (641) 
-5.01631

>  <distance_score>  (641) 
0.386555

>  <HIPPO Pose ID>  (641) 
55902

>  <ref_mols>  (641) 
x0421c

>  <smiles>  (641) 
C[C@H]1CCC[C@H]1NC(=O)c1cc(Cl)n(C)n1

>  <HIPPO Compound ID>  (641) 
131458

>  <alias>  (641) 
ANCUKAQOICZANH-JGVFFNPUSA-N-P13

>  <subsites>  (641) 


>  <placement_batch>  (641) 
CpKRS_FrAncestor_bulkdock_iter2

>  <name>  (641) 
ANCUKAQOICZANH-JGVFFNPUSA-N-P13

$$$$
HDHIDJQXSRVCFT-NKWVEPMBSA-N-P13
     RDKit          3D

 15 16  0  0  0  0  0  0  0  0999 V2000
    4.7082  -11.6995   21.7671 C   0  0  0  0  0  0  0  0  0  0  0  0
    5.3961  -10.5843   22.5074 C   0  0  1  0  0  0  0  0  0  0  0  0
    5.0089   -9.1808   22.0463 C   0  0  0  0  0  0  0  0  0  0  0  0
    5.3842   -8.3278   23.2463 C   0  0  0  0  0  0  0  0  0  0  0  0
    4.8345   -9.1488   24.4028 C   0  0  0  0  0  0  0  0  0  0  0  0
    5.2118  -10.5836   24.0315 C   0  0  1  0  0  0  0  0  0  0  0  0
    4.3144  -11.5768   24.5538 N   0  0  0  0  0  0  0  0  0  0  0  0
    4.5529  -13.0595   24.8960 C   0  0  0  0  0  0  0  0  0  0  0  0
    5.4927  -13.7297   24.7367 O   0  0  0  0  0  0  0  0  0  0  0  0
    3.3707  -13.5837   25.6182 C   0  0  0  0  0  0  0  0  0  0  0  0
    3.3853  -14.6704   26.5411 C   0  0  0  0  0  0  0  0  0  0  0  0
    2.1663  -14.6037   27.1456 C   0  0  0  0  0  0  0  0  0  0  0  0
    1.5165  -15.3522   28.5172 Cl  0  0  0  0  0  0  0  0  0  0  0  0
    1.4436  -13.6552   26.5038 N   0  0  0  0  0  0  0  0  0  0  0  0
    2.1555  -12.9842   25.5751 N   0  0  0  0  0  0  0  0  0  0  0  0
  2  1  1  6
  2  3  1  0
  3  4  1  0
  4  5  1  0
  5  6  1  0
  6  7  1  6
  7  8  1  0
  8  9  2  0
  8 10  1  0
 10 11  1  0
 11 12  2  0
 12 13  1  0
 12 14  1  0
 14 15  1  0
  6  2  1  0
 15 10  2  0
M  END
>  <inchikey>  (642) 
HDHIDJQXSRVCFT-UHFFFAOYSA-N

>  <tags>  (642) 
fragmenstein_placed,CpKRS_FrAncestor_bulkdock_iter2

>  <ref_pdb>  (642) 
x0602b

>  <energy_score>  (642) 
-8.774211

>  <distance_score>  (642) 
0.437668

>  <HIPPO Pose ID>  (642) 
55906

>  <ref_mols>  (642) 
x0421c

>  <smiles>  (642) 
C[C@H]1CCC[C@H]1NC(=O)c1cc(Cl)[nH]n1

>  <HIPPO Compound ID>  (642) 
307577

>  <alias>  (642) 
HDHIDJQXSRVCFT-NKWVEPMBSA-N-P13

>  <subsites>  (642) 


>  <placement_batch>  (642) 
CpKRS_FrAncestor_bulkdock_iter2

>  <name>  (642) 
HDHIDJQXSRVCFT-NKWVEPMBSA-N-P13

$$$$
QYKWWEDHFMXHEW-IONNQARKSA-N-P12
     RDKit          3D

 16 17  0  0  0  0  0  0  0  0999 V2000
    2.7380   -9.5570   22.7921 C   0  0  0  0  0  0  0  0  0  0  0  0
    4.0750  -10.0874   22.2611 C   0  0  1  0  0  0  0  0  0  0  0  0
    5.0420   -8.9578   21.9144 C   0  0  0  0  0  0  0  0  0  0  0  0
    5.6435   -8.5410   23.2503 C   0  0  0  0  0  0  0  0  0  0  0  0
    5.5167   -9.7601   24.1614 C   0  0  0  0  0  0  0  0  0  0  0  0
    4.8800  -10.8554   23.3038 C   0  0  1  0  0  0  0  0  0  0  0  0
    4.1061  -11.8014   24.0466 N   0  0  0  0  0  0  0  0  0  0  0  0
    4.5078  -13.1361   24.6818 C   0  0  0  0  0  0  0  0  0  0  0  0
    5.5131  -13.7193   24.6388 O   0  0  0  0  0  0  0  0  0  0  0  0
    3.3411  -13.6238   25.4529 C   0  0  0  0  0  0  0  0  0  0  0  0
    2.1250  -13.0306   25.3403 N   0  0  0  0  0  0  0  0  0  0  0  0
    1.3583  -13.6904   26.2327 N   0  0  0  0  0  0  0  0  0  0  0  0
   -0.0366  -13.3561   26.3879 C   0  0  0  0  0  0  0  0  0  0  0  0
    2.0134  -14.6821   26.8940 C   0  0  0  0  0  0  0  0  0  0  0  0
    3.2840  -14.6748   26.3886 C   0  0  0  0  0  0  0  0  0  0  0  0
    4.6772  -15.8027   26.8838 Br  0  0  0  0  0  0  0  0  0  0  0  0
  2  1  1  1
  2  3  1  0
  3  4  1  0
  4  5  1  0
  5  6  1  0
  6  7  1  1
  7  8  1  0
  8  9  2  0
  8 10  1  0
 10 11  2  0
 11 12  1  0
 12 13  1  0
 12 14  1  0
 14 15  2  0
 15 16  1  0
  6  2  1  0
 15 10  1  0
M  END
>  <inchikey>  (643) 
QYKWWEDHFMXHEW-UHFFFAOYSA-N

>  <tags>  (643) 
fragmenstein_placed,CpKRS_FrAncestor_bulkdock_iter2

>  <ref_pdb>  (643) 
x0602b

>  <energy_score>  (643) 
-15.260547

>  <distance_score>  (643) 
0.446838

>  <HIPPO Pose ID>  (643) 
55917

>  <ref_mols>  (643) 
x0421b

>  <smiles>  (643) 
C[C@H]1CCC[C@H]1NC(=O)c1nn(C)cc1Br

>  <HIPPO Compound ID>  (643) 
131457

>  <alias>  (643) 
QYKWWEDHFMXHEW-IONNQARKSA-N-P12

>  <subsites>  (643) 


>  <placement_batch>  (643) 
CpKRS_FrAncestor_bulkdock_iter2

>  <name>  (643) 
QYKWWEDHFMXHEW-IONNQARKSA-N-P12

$$$$
JMXQIMUWTLSHGT-IONNQARKSA-N-P14
     RDKit          3D

 16 17  0  0  0  0  0  0  0  0999 V2000
    3.9423  -11.7416   21.9170 C   0  0  0  0  0  0  0  0  0  0  0  0
    5.1226  -10.9280   22.3962 C   0  0  1  0  0  0  0  0  0  0  0  0
    5.2352   -9.5737   21.6810 C   0  0  0  0  0  0  0  0  0  0  0  0
    5.2741   -8.5185   22.7796 C   0  0  0  0  0  0  0  0  0  0  0  0
    4.5344   -9.1661   23.9360 C   0  0  0  0  0  0  0  0  0  0  0  0
    5.0456  -10.5972   23.8800 C   0  0  1  0  0  0  0  0  0  0  0  0
    4.2480  -11.5293   24.6119 N   0  0  0  0  0  0  0  0  0  0  0  0
    4.5562  -12.9679   25.0685 C   0  0  0  0  0  0  0  0  0  0  0  0
    5.5365  -13.5924   24.9869 O   0  0  0  0  0  0  0  0  0  0  0  0
    3.3551  -13.4608   25.7689 C   0  0  0  0  0  0  0  0  0  0  0  0
    2.1664  -12.8144   25.6424 N   0  0  0  0  0  0  0  0  0  0  0  0
    1.3244  -13.5829   26.3416 N   0  0  0  0  0  0  0  0  0  0  0  0
   -0.0865  -13.3734   26.1678 C   0  0  0  0  0  0  0  0  0  0  0  0
    1.9268  -14.5596   27.0670 C   0  0  0  0  0  0  0  0  0  0  0  0
    3.2424  -14.5512   26.6676 C   0  0  0  0  0  0  0  0  0  0  0  0
    4.4451  -15.6412   27.1485 Cl  0  0  0  0  0  0  0  0  0  0  0  0
  2  1  1  6
  2  3  1  0
  3  4  1  0
  4  5  1  0
  5  6  1  0
  6  7  1  1
  7  8  1  0
  8  9  2  0
  8 10  1  0
 10 11  2  0
 11 12  1  0
 12 13  1  0
 12 14  1  0
 14 15  2  0
 15 16  1  0
  6  2  1  0
 15 10  1  0
M  END
>  <inchikey>  (644) 
JMXQIMUWTLSHGT-UHFFFAOYSA-N

>  <tags>  (644) 
fragmenstein_placed,CpKRS_FrAncestor_bulkdock_iter2

>  <ref_pdb>  (644) 
x0602b

>  <energy_score>  (644) 
-15.710068

>  <distance_score>  (644) 
0.404016

>  <HIPPO Pose ID>  (644) 
55931

>  <ref_mols>  (644) 
x0421d

>  <smiles>  (644) 
C[C@H]1CCC[C@H]1NC(=O)c1nn(C)cc1Cl

>  <HIPPO Compound ID>  (644) 
15914

>  <alias>  (644) 
JMXQIMUWTLSHGT-IONNQARKSA-N-P14

>  <subsites>  (644) 


>  <placement_batch>  (644) 
CpKRS_FrAncestor_bulkdock_iter2

>  <name>  (644) 
JMXQIMUWTLSHGT-IONNQARKSA-N-P14

$$$$
MTSGAYHYDUEJCT-POYBYMJQSA-N-P13
     RDKit          3D

 15 16  0  0  0  0  0  0  0  0999 V2000
    4.6779  -11.7241   21.8068 C   0  0  0  0  0  0  0  0  0  0  0  0
    5.4039  -10.6015   22.4998 C   0  0  1  0  0  0  0  0  0  0  0  0
    5.0012   -9.2035   22.0318 C   0  0  0  0  0  0  0  0  0  0  0  0
    5.3929   -8.3312   23.2125 C   0  0  0  0  0  0  0  0  0  0  0  0
    4.8793   -9.1445   24.3901 C   0  0  0  0  0  0  0  0  0  0  0  0
    5.2837  -10.5738   24.0296 C   0  0  1  0  0  0  0  0  0  0  0  0
    4.4442  -11.5810   24.6147 N   0  0  0  0  0  0  0  0  0  0  0  0
    4.7327  -13.0609   24.9392 C   0  0  0  0  0  0  0  0  0  0  0  0
    5.7201  -13.6743   24.8534 O   0  0  0  0  0  0  0  0  0  0  0  0
    3.5228  -13.6648   25.5264 C   0  0  0  0  0  0  0  0  0  0  0  0
    2.2973  -13.0884   25.4492 N   0  0  0  0  0  0  0  0  0  0  0  0
    1.5130  -13.9081   26.1788 N   0  0  0  0  0  0  0  0  0  0  0  0
    2.1668  -14.9763   26.7126 C   0  0  0  0  0  0  0  0  0  0  0  0
    3.4604  -14.8444   26.2944 C   0  0  0  0  0  0  0  0  0  0  0  0
    4.4697  -15.6589   26.6191 F   0  0  0  0  0  0  0  0  0  0  0  0
  2  1  1  6
  2  3  1  0
  3  4  1  0
  4  5  1  0
  5  6  1  0
  6  7  1  6
  7  8  1  0
  8  9  2  0
  8 10  1  0
 10 11  2  0
 11 12  1  0
 12 13  1  0
 13 14  2  0
 14 15  1  0
  6  2  1  0
 14 10  1  0
M  END
>  <inchikey>  (645) 
MTSGAYHYDUEJCT-UHFFFAOYSA-N

>  <tags>  (645) 
fragmenstein_placed,CpKRS_FrAncestor_bulkdock_iter2

>  <ref_pdb>  (645) 
x0602b

>  <energy_score>  (645) 
-5.035077

>  <distance_score>  (645) 
0.394987

>  <HIPPO Pose ID>  (645) 
55946

>  <ref_mols>  (645) 
x0421c

>  <smiles>  (645) 
C[C@H]1CCC[C@H]1NC(=O)c1n[nH]cc1F

>  <HIPPO Compound ID>  (645) 
307576

>  <alias>  (645) 
MTSGAYHYDUEJCT-POYBYMJQSA-N-P13

>  <subsites>  (645) 


>  <placement_batch>  (645) 
CpKRS_FrAncestor_bulkdock_iter2

>  <name>  (645) 
MTSGAYHYDUEJCT-POYBYMJQSA-N-P13

$$$$
WYDFUIKRKQSWQW-JGVFFNPUSA-N-P13
     RDKit          3D

 16 17  0  0  0  0  0  0  0  0999 V2000
    4.8518   -8.7763   21.2186 C   0  0  0  0  0  0  0  0  0  0  0  0
    5.7388   -9.5037   22.1885 C   0  0  1  0  0  0  0  0  0  0  0  0
    5.7700   -8.7411   23.5186 C   0  0  0  0  0  0  0  0  0  0  0  0
    4.8412   -9.5405   24.4139 C   0  0  0  0  0  0  0  0  0  0  0  0
    5.1867  -10.9624   23.9999 C   0  0  1  0  0  0  0  0  0  0  0  0
    4.3427  -11.9705   24.5379 N   0  0  0  0  0  0  0  0  0  0  0  0
    4.6589  -13.4083   24.9733 C   0  0  0  0  0  0  0  0  0  0  0  0
    5.6440  -14.0225   24.8898 O   0  0  0  0  0  0  0  0  0  0  0  0
    3.4749  -13.9391   25.6682 C   0  0  0  0  0  0  0  0  0  0  0  0
    3.4899  -14.8844   26.7254 C   0  0  0  0  0  0  0  0  0  0  0  0
    2.2314  -14.8163   27.2605 C   0  0  0  0  0  0  0  0  0  0  0  0
    1.7127  -15.5582   28.9251 Br  0  0  0  0  0  0  0  0  0  0  0  0
    1.4989  -14.0359   26.4198 N   0  0  0  0  0  0  0  0  0  0  0  0
    0.0886  -13.7599   26.4881 C   0  0  0  0  0  0  0  0  0  0  0  0
    2.2366  -13.4337   25.4709 N   0  0  0  0  0  0  0  0  0  0  0  0
    5.1950  -10.9056   22.4864 C   0  0  0  0  0  0  0  0  0  0  0  0
  2  1  1  6
  2  3  1  0
  3  4  1  0
  4  5  1  0
  5  6  1  6
  6  7  1  0
  7  8  2  0
  7  9  1  0
  9 10  1  0
 10 11  2  0
 11 12  1  0
 11 13  1  0
 13 14  1  0
 13 15  1  0
  5 16  1  0
 16  2  1  0
 15  9  2  0
M  END
>  <inchikey>  (646) 
WYDFUIKRKQSWQW-UHFFFAOYSA-N

>  <tags>  (646) 
fragmenstein_placed,CpKRS_FrAncestor_bulkdock_iter2

>  <ref_pdb>  (646) 
x0602b

>  <energy_score>  (646) 
-1.118624

>  <distance_score>  (646) 
0.427062

>  <HIPPO Pose ID>  (646) 
55950

>  <ref_mols>  (646) 
x0421c

>  <smiles>  (646) 
C[C@H]1CC[C@@H](NC(=O)c2cc(Br)n(C)n2)C1

>  <HIPPO Compound ID>  (646) 
132608

>  <alias>  (646) 
WYDFUIKRKQSWQW-JGVFFNPUSA-N-P13

>  <subsites>  (646) 


>  <placement_batch>  (646) 
CpKRS_FrAncestor_bulkdock_iter2

>  <name>  (646) 
WYDFUIKRKQSWQW-JGVFFNPUSA-N-P13

$$$$
LCZKBNCJIUHFJK-JGVFFNPUSA-N-P13
     RDKit          3D

 16 17  0  0  0  0  0  0  0  0999 V2000
    4.8472   -8.7918   21.2144 C   0  0  0  0  0  0  0  0  0  0  0  0
    5.7245   -9.5157   22.1955 C   0  0  1  0  0  0  0  0  0  0  0  0
    5.7476   -8.7458   23.5219 C   0  0  0  0  0  0  0  0  0  0  0  0
    4.8272   -9.5493   24.4226 C   0  0  0  0  0  0  0  0  0  0  0  0
    5.1808  -10.9700   24.0115 C   0  0  1  0  0  0  0  0  0  0  0  0
    4.3540  -11.9865   24.5620 N   0  0  0  0  0  0  0  0  0  0  0  0
    4.6875  -13.4255   24.9809 C   0  0  0  0  0  0  0  0  0  0  0  0
    5.6736  -14.0339   24.8713 O   0  0  0  0  0  0  0  0  0  0  0  0
    3.5246  -13.9730   25.7005 C   0  0  0  0  0  0  0  0  0  0  0  0
    3.5724  -14.9608   26.7190 C   0  0  0  0  0  0  0  0  0  0  0  0
    2.3290  -14.9184   27.2793 C   0  0  0  0  0  0  0  0  0  0  0  0
    1.7409  -15.6069   28.7164 Cl  0  0  0  0  0  0  0  0  0  0  0  0
    1.5690  -14.0929   26.5121 N   0  0  0  0  0  0  0  0  0  0  0  0
    0.1602  -13.8201   26.6217 C   0  0  0  0  0  0  0  0  0  0  0  0
    2.2809  -13.4578   25.5602 N   0  0  0  0  0  0  0  0  0  0  0  0
    5.1775  -10.9158   22.4978 C   0  0  0  0  0  0  0  0  0  0  0  0
  2  1  1  6
  2  3  1  0
  3  4  1  0
  4  5  1  0
  5  6  1  6
  6  7  1  0
  7  8  2  0
  7  9  1  0
  9 10  1  0
 10 11  2  0
 11 12  1  0
 11 13  1  0
 13 14  1  0
 13 15  1  0
  5 16  1  0
 16  2  1  0
 15  9  2  0
M  END
>  <inchikey>  (647) 
LCZKBNCJIUHFJK-UHFFFAOYSA-N

>  <tags>  (647) 
fragmenstein_placed,CpKRS_FrAncestor_bulkdock_iter2

>  <ref_pdb>  (647) 
x0602b

>  <energy_score>  (647) 
-8.1488

>  <distance_score>  (647) 
0.432031

>  <HIPPO Pose ID>  (647) 
55954

>  <ref_mols>  (647) 
x0421c

>  <smiles>  (647) 
C[C@H]1CC[C@@H](NC(=O)c2cc(Cl)n(C)n2)C1

>  <HIPPO Compound ID>  (647) 
132607

>  <alias>  (647) 
LCZKBNCJIUHFJK-JGVFFNPUSA-N-P13

>  <subsites>  (647) 


>  <placement_batch>  (647) 
CpKRS_FrAncestor_bulkdock_iter2

>  <name>  (647) 
LCZKBNCJIUHFJK-JGVFFNPUSA-N-P13

$$$$
SLRNWOJFPZKJHM-NKWVEPMBSA-N-P13
     RDKit          3D

 15 16  0  0  0  0  0  0  0  0999 V2000
    4.8384   -8.8434   21.2150 C   0  0  0  0  0  0  0  0  0  0  0  0
    5.6705   -9.6137   22.2029 C   0  0  1  0  0  0  0  0  0  0  0  0
    5.7545   -8.8312   23.5188 C   0  0  0  0  0  0  0  0  0  0  0  0
    4.7920   -9.5604   24.4371 C   0  0  0  0  0  0  0  0  0  0  0  0
    5.0391  -11.0105   24.0463 C   0  0  1  0  0  0  0  0  0  0  0  0
    4.1378  -11.9479   24.6303 N   0  0  0  0  0  0  0  0  0  0  0  0
    4.3415  -13.4208   25.0162 C   0  0  0  0  0  0  0  0  0  0  0  0
    5.2528  -14.1258   24.8488 O   0  0  0  0  0  0  0  0  0  0  0  0
    3.1670  -13.8698   25.7949 C   0  0  0  0  0  0  0  0  0  0  0  0
    3.1766  -14.9079   26.7701 C   0  0  0  0  0  0  0  0  0  0  0  0
    1.9841  -14.7629   27.4127 C   0  0  0  0  0  0  0  0  0  0  0  0
    1.3537  -15.4217   28.8396 Cl  0  0  0  0  0  0  0  0  0  0  0  0
    1.2731  -13.8197   26.7498 N   0  0  0  0  0  0  0  0  0  0  0  0
    1.9764  -13.2212   25.7679 N   0  0  0  0  0  0  0  0  0  0  0  0
    5.0346  -10.9738   22.5298 C   0  0  0  0  0  0  0  0  0  0  0  0
  2  1  1  6
  2  3  1  0
  3  4  1  0
  4  5  1  0
  5  6  1  6
  6  7  1  0
  7  8  2  0
  7  9  1  0
  9 10  1  0
 10 11  2  0
 11 12  1  0
 11 13  1  0
 13 14  1  0
  5 15  1  0
 15  2  1  0
 14  9  2  0
M  END
>  <inchikey>  (648) 
SLRNWOJFPZKJHM-UHFFFAOYSA-N

>  <tags>  (648) 
fragmenstein_placed,CpKRS_FrAncestor_bulkdock_iter2

>  <ref_pdb>  (648) 
x0602b

>  <energy_score>  (648) 
-18.722213

>  <distance_score>  (648) 
0.538599

>  <HIPPO Pose ID>  (648) 
55958

>  <ref_mols>  (648) 
x0421c

>  <smiles>  (648) 
C[C@H]1CC[C@@H](NC(=O)c2cc(Cl)[nH]n2)C1

>  <HIPPO Compound ID>  (648) 
308695

>  <alias>  (648) 
SLRNWOJFPZKJHM-NKWVEPMBSA-N-P13

>  <subsites>  (648) 


>  <placement_batch>  (648) 
CpKRS_FrAncestor_bulkdock_iter2

>  <name>  (648) 
SLRNWOJFPZKJHM-NKWVEPMBSA-N-P13

$$$$
OTZSPIBEYNTTLW-WDEREUQCSA-N-P11
     RDKit          3D

 18 19  0  0  0  0  0  0  0  0999 V2000
    4.7543   -8.8400   21.1818 C   0  0  0  0  0  0  0  0  0  0  0  0
    5.6641   -9.5569   22.1465 C   0  0  1  0  0  0  0  0  0  0  0  0
    5.7228   -8.7798   23.4653 C   0  0  0  0  0  0  0  0  0  0  0  0
    4.7881   -9.5468   24.3816 C   0  0  0  0  0  0  0  0  0  0  0  0
    5.1092  -10.9865   24.0074 C   0  0  1  0  0  0  0  0  0  0  0  0
    4.1967  -11.9426   24.5345 N   0  0  0  0  0  0  0  0  0  0  0  0
    4.4525  -13.2969   25.2194 C   0  0  0  0  0  0  0  0  0  0  0  0
    5.4467  -13.8805   25.3921 O   0  0  0  0  0  0  0  0  0  0  0  0
    3.1577  -13.7679   25.7495 C   0  0  0  0  0  0  0  0  0  0  0  0
    2.9048  -14.8761   26.5898 C   0  0  0  0  0  0  0  0  0  0  0  0
    1.5392  -14.8968   26.7609 C   0  0  0  0  0  0  0  0  0  0  0  0
    1.0493  -13.8832   25.9868 N   0  0  0  0  0  0  0  0  0  0  0  0
   -0.3455  -13.5713   25.6414 C   0  0  0  0  0  0  0  0  0  0  0  0
   -0.4464  -13.0377   24.1893 C   0  0  0  0  0  0  0  0  0  0  0  0
   -0.8883  -12.4965   26.5910 C   0  0  0  0  0  0  0  0  0  0  0  0
   -1.2443  -14.8122   25.7046 C   0  0  0  0  0  0  0  0  0  0  0  0
    2.0162  -13.0933   25.4912 N   0  0  0  0  0  0  0  0  0  0  0  0
    5.1366  -10.9585   22.4866 C   0  0  0  0  0  0  0  0  0  0  0  0
  2  1  1  6
  2  3  1  0
  3  4  1  0
  4  5  1  0
  5  6  1  6
  6  7  1  0
  7  8  2  0
  7  9  1  0
  9 10  1  0
 10 11  2  0
 11 12  1  0
 12 13  1  0
 13 14  1  0
 13 15  1  0
 13 16  1  0
 12 17  1  0
  5 18  1  0
 18  2  1  0
 17  9  2  0
M  END
>  <inchikey>  (649) 
OTZSPIBEYNTTLW-UHFFFAOYSA-N

>  <tags>  (649) 
fragmenstein_placed,CpKRS_FrAncestor_bulkdock_iter2

>  <ref_pdb>  (649) 
x0602b

>  <energy_score>  (649) 
-13.185461

>  <distance_score>  (649) 
0.863724

>  <HIPPO Pose ID>  (649) 
55960

>  <ref_mols>  (649) 
x0421a

>  <smiles>  (649) 
C[C@H]1CC[C@@H](NC(=O)c2ccn(C(C)(C)C)n2)C1

>  <HIPPO Compound ID>  (649) 
447750

>  <alias>  (649) 
OTZSPIBEYNTTLW-WDEREUQCSA-N-P11

>  <subsites>  (649) 


>  <placement_batch>  (649) 
CpKRS_FrAncestor_bulkdock_iter2

>  <name>  (649) 
OTZSPIBEYNTTLW-WDEREUQCSA-N-P11

$$$$
GUYWKWPNMLGBLQ-DTWKUNHWSA-N-P13
     RDKit          3D

 15 16  0  0  0  0  0  0  0  0999 V2000
    4.8589   -8.7666   21.2303 C   0  0  0  0  0  0  0  0  0  0  0  0
    5.7329   -9.4789   22.2230 C   0  0  1  0  0  0  0  0  0  0  0  0
    5.7372   -8.7077   23.5487 C   0  0  0  0  0  0  0  0  0  0  0  0
    4.8142   -9.5166   24.4432 C   0  0  0  0  0  0  0  0  0  0  0  0
    5.1816  -10.9346   24.0380 C   0  0  1  0  0  0  0  0  0  0  0  0
    4.3520  -11.9616   24.5637 N   0  0  0  0  0  0  0  0  0  0  0  0
    4.6818  -13.4102   24.9497 C   0  0  0  0  0  0  0  0  0  0  0  0
    5.6670  -14.0181   24.8275 O   0  0  0  0  0  0  0  0  0  0  0  0
    3.5062  -13.9878   25.6254 C   0  0  0  0  0  0  0  0  0  0  0  0
    3.4868  -15.1566   26.4264 C   0  0  0  0  0  0  0  0  0  0  0  0
    2.2133  -15.2257   26.9313 C   0  0  0  0  0  0  0  0  0  0  0  0
    1.5406  -14.1775   26.3859 N   0  0  0  0  0  0  0  0  0  0  0  0
    0.1554  -13.8522   26.6010 C   0  0  0  0  0  0  0  0  0  0  0  0
    2.2912  -13.3953   25.5958 N   0  0  0  0  0  0  0  0  0  0  0  0
    5.1951  -10.8816   22.5231 C   0  0  0  0  0  0  0  0  0  0  0  0
  2  1  1  6
  2  3  1  0
  3  4  1  0
  4  5  1  0
  5  6  1  6
  6  7  1  0
  7  8  2  0
  7  9  1  0
  9 10  1  0
 10 11  2  0
 11 12  1  0
 12 13  1  0
 12 14  1  0
  5 15  1  0
 15  2  1  0
 14  9  2  0
M  END
>  <inchikey>  (650) 
GUYWKWPNMLGBLQ-UHFFFAOYSA-N

>  <tags>  (650) 
fragmenstein_placed,CpKRS_FrAncestor_bulkdock_iter2

>  <ref_pdb>  (650) 
x0602b

>  <energy_score>  (650) 
-3.767699

>  <distance_score>  (650) 
0.427638

>  <HIPPO Pose ID>  (650) 
55966

>  <ref_mols>  (650) 
x0421c

>  <smiles>  (650) 
C[C@H]1CC[C@@H](NC(=O)c2ccn(C)n2)C1

>  <HIPPO Compound ID>  (650) 
310056

>  <alias>  (650) 
GUYWKWPNMLGBLQ-DTWKUNHWSA-N-P13

>  <subsites>  (650) 


>  <placement_batch>  (650) 
CpKRS_FrAncestor_bulkdock_iter2

>  <name>  (650) 
GUYWKWPNMLGBLQ-DTWKUNHWSA-N-P13

$$$$
JPUJVPCOIHSDIT-JGVFFNPUSA-N-P13
     RDKit          3D

 16 17  0  0  0  0  0  0  0  0999 V2000
    4.9080   -8.6270   21.2666 C   0  0  0  0  0  0  0  0  0  0  0  0
    5.8018   -9.3538   22.2301 C   0  0  1  0  0  0  0  0  0  0  0  0
    5.8461   -8.5944   23.5611 C   0  0  0  0  0  0  0  0  0  0  0  0
    4.8569   -9.3435   24.4351 C   0  0  0  0  0  0  0  0  0  0  0  0
    5.1513  -10.7783   24.0387 C   0  0  1  0  0  0  0  0  0  0  0  0
    4.2210  -11.7446   24.4999 N   0  0  0  0  0  0  0  0  0  0  0  0
    4.3802  -13.2501   24.7253 C   0  0  0  0  0  0  0  0  0  0  0  0
    5.2757  -13.9559   24.4974 O   0  0  0  0  0  0  0  0  0  0  0  0
    3.1768  -13.7294   25.4268 C   0  0  0  0  0  0  0  0  0  0  0  0
    1.9917  -13.0792   25.3479 N   0  0  0  0  0  0  0  0  0  0  0  0
    1.1716  -13.8189   26.1130 N   0  0  0  0  0  0  0  0  0  0  0  0
   -0.2280  -13.4908   26.1845 C   0  0  0  0  0  0  0  0  0  0  0  0
    1.7873  -14.8395   26.7651 C   0  0  0  0  0  0  0  0  0  0  0  0
    3.0766  -14.8199   26.3106 C   0  0  0  0  0  0  0  0  0  0  0  0
    4.4626  -15.9460   26.8193 Br  0  0  0  0  0  0  0  0  0  0  0  0
    5.2449  -10.7456   22.5262 C   0  0  0  0  0  0  0  0  0  0  0  0
  2  1  1  6
  2  3  1  0
  3  4  1  0
  4  5  1  0
  5  6  1  6
  6  7  1  0
  7  8  2  0
  7  9  1  0
  9 10  2  0
 10 11  1  0
 11 12  1  0
 11 13  1  0
 13 14  2  0
 14 15  1  0
  5 16  1  0
 16  2  1  0
 14  9  1  0
M  END
>  <inchikey>  (651) 
JPUJVPCOIHSDIT-UHFFFAOYSA-N

>  <tags>  (651) 
fragmenstein_placed,CpKRS_FrAncestor_bulkdock_iter2

>  <ref_pdb>  (651) 
x0602b

>  <energy_score>  (651) 
-1.481116

>  <distance_score>  (651) 
0.437984

>  <HIPPO Pose ID>  (651) 
55970

>  <ref_mols>  (651) 
x0421c

>  <smiles>  (651) 
C[C@H]1CC[C@@H](NC(=O)c2nn(C)cc2Br)C1

>  <HIPPO Compound ID>  (651) 
132606

>  <alias>  (651) 
JPUJVPCOIHSDIT-JGVFFNPUSA-N-P13

>  <subsites>  (651) 


>  <placement_batch>  (651) 
CpKRS_FrAncestor_bulkdock_iter2

>  <name>  (651) 
JPUJVPCOIHSDIT-JGVFFNPUSA-N-P13

$$$$
SQNQVVKXXGLCBW-JGVFFNPUSA-N-P13
     RDKit          3D

 18 19  0  0  0  0  0  0  0  0999 V2000
    4.8825   -8.6974   21.2505 C   0  0  0  0  0  0  0  0  0  0  0  0
    5.7777   -9.4068   22.2260 C   0  0  1  0  0  0  0  0  0  0  0  0
    5.7887   -8.6479   23.5582 C   0  0  0  0  0  0  0  0  0  0  0  0
    4.8479   -9.4509   24.4388 C   0  0  0  0  0  0  0  0  0  0  0  0
    5.2080  -10.8693   24.0312 C   0  0  1  0  0  0  0  0  0  0  0  0
    4.3437  -11.8875   24.5130 N   0  0  0  0  0  0  0  0  0  0  0  0
    4.6313  -13.3486   24.8749 C   0  0  0  0  0  0  0  0  0  0  0  0
    5.6048  -13.9753   24.7644 O   0  0  0  0  0  0  0  0  0  0  0  0
    3.4251  -13.8982   25.5252 C   0  0  0  0  0  0  0  0  0  0  0  0
    2.2473  -13.2318   25.5068 N   0  0  0  0  0  0  0  0  0  0  0  0
    1.4283  -14.0053   26.2272 N   0  0  0  0  0  0  0  0  0  0  0  0
    0.0437  -13.6410   26.3802 C   0  0  0  0  0  0  0  0  0  0  0  0
    2.0326  -15.0993   26.7564 C   0  0  0  0  0  0  0  0  0  0  0  0
    3.3265  -15.0991   26.2750 C   0  0  0  0  0  0  0  0  0  0  0  0
    4.3910  -16.0954   26.5162 C   0  0  0  0  0  0  0  0  0  0  0  0
    4.9129  -16.5936   25.3653 F   0  0  0  0  0  0  0  0  0  0  0  0
    5.4209  -15.5883   27.2399 F   0  0  0  0  0  0  0  0  0  0  0  0
    5.2545  -10.8141   22.5171 C   0  0  0  0  0  0  0  0  0  0  0  0
  2  1  1  6
  2  3  1  0
  3  4  1  0
  4  5  1  0
  5  6  1  6
  6  7  1  0
  7  8  2  0
  7  9  1  0
  9 10  2  0
 10 11  1  0
 11 12  1  0
 11 13  1  0
 13 14  2  0
 14 15  1  0
 15 16  1  0
 15 17  1  0
  5 18  1  0
 18  2  1  0
 14  9  1  0
M  END
>  <inchikey>  (652) 
SQNQVVKXXGLCBW-UHFFFAOYSA-N

>  <tags>  (652) 
fragmenstein_placed,CpKRS_FrAncestor_bulkdock_iter2

>  <ref_pdb>  (652) 
x0602b

>  <energy_score>  (652) 
-31.165298

>  <distance_score>  (652) 
0.419472

>  <HIPPO Pose ID>  (652) 
55974

>  <ref_mols>  (652) 
x0421c

>  <smiles>  (652) 
C[C@H]1CC[C@@H](NC(=O)c2nn(C)cc2C(F)F)C1

>  <HIPPO Compound ID>  (652) 
447754

>  <alias>  (652) 
SQNQVVKXXGLCBW-JGVFFNPUSA-N-P13

>  <subsites>  (652) 


>  <placement_batch>  (652) 
CpKRS_FrAncestor_bulkdock_iter2

>  <name>  (652) 
SQNQVVKXXGLCBW-JGVFFNPUSA-N-P13

$$$$
QJOPOYYSRAZDEP-JGVFFNPUSA-N-P13
     RDKit          3D

 19 20  0  0  0  0  0  0  0  0999 V2000
    4.8717   -8.7296   21.2429 C   0  0  0  0  0  0  0  0  0  0  0  0
    5.7699   -9.4535   22.2061 C   0  0  1  0  0  0  0  0  0  0  0  0
    5.8091   -8.6940   23.5371 C   0  0  0  0  0  0  0  0  0  0  0  0
    4.8597   -9.4766   24.4255 C   0  0  0  0  0  0  0  0  0  0  0  0
    5.1879  -10.9046   24.0204 C   0  0  1  0  0  0  0  0  0  0  0  0
    4.3010  -11.8959   24.5206 N   0  0  0  0  0  0  0  0  0  0  0  0
    4.5505  -13.3646   24.8818 C   0  0  0  0  0  0  0  0  0  0  0  0
    5.5028  -14.0210   24.7562 O   0  0  0  0  0  0  0  0  0  0  0  0
    3.3492  -13.8733   25.5669 C   0  0  0  0  0  0  0  0  0  0  0  0
    2.1532  -13.2567   25.4404 N   0  0  0  0  0  0  0  0  0  0  0  0
    1.3340  -13.9799   26.2125 N   0  0  0  0  0  0  0  0  0  0  0  0
   -0.0671  -13.6540   26.2751 C   0  0  0  0  0  0  0  0  0  0  0  0
    1.9599  -14.9737   26.8912 C   0  0  0  0  0  0  0  0  0  0  0  0
    3.2804  -14.9564   26.4787 C   0  0  0  0  0  0  0  0  0  0  0  0
    4.3883  -15.8295   26.9188 C   0  0  0  0  0  0  0  0  0  0  0  0
    4.0837  -16.3961   28.1204 F   0  0  0  0  0  0  0  0  0  0  0  0
    5.5696  -15.1952   27.1066 F   0  0  0  0  0  0  0  0  0  0  0  0
    4.6162  -16.8489   26.0534 F   0  0  0  0  0  0  0  0  0  0  0  0
    5.2303  -10.8547   22.5057 C   0  0  0  0  0  0  0  0  0  0  0  0
  2  1  1  6
  2  3  1  0
  3  4  1  0
  4  5  1  0
  5  6  1  6
  6  7  1  0
  7  8  2  0
  7  9  1  0
  9 10  2  0
 10 11  1  0
 11 12  1  0
 11 13  1  0
 13 14  2  0
 14 15  1  0
 15 16  1  0
 15 17  1  0
 15 18  1  0
  5 19  1  0
 19  2  1  0
 14  9  1  0
M  END
>  <inchikey>  (653) 
QJOPOYYSRAZDEP-UHFFFAOYSA-N

>  <tags>  (653) 
fragmenstein_placed,CpKRS_FrAncestor_bulkdock_iter2

>  <ref_pdb>  (653) 
x0602b

>  <energy_score>  (653) 
-8.978507

>  <distance_score>  (653) 
0.390203

>  <HIPPO Pose ID>  (653) 
55978

>  <ref_mols>  (653) 
x0421c

>  <smiles>  (653) 
C[C@H]1CC[C@@H](NC(=O)c2nn(C)cc2C(F)(F)F)C1

>  <HIPPO Compound ID>  (653) 
447755

>  <alias>  (653) 
QJOPOYYSRAZDEP-JGVFFNPUSA-N-P13

>  <subsites>  (653) 


>  <placement_batch>  (653) 
CpKRS_FrAncestor_bulkdock_iter2

>  <name>  (653) 
QJOPOYYSRAZDEP-JGVFFNPUSA-N-P13

$$$$
WTAKJBAKYTVRQO-JGVFFNPUSA-N-P13
     RDKit          3D

 16 17  0  0  0  0  0  0  0  0999 V2000
    4.8849   -8.6813   21.2498 C   0  0  0  0  0  0  0  0  0  0  0  0
    5.7760   -9.4039   22.2189 C   0  0  1  0  0  0  0  0  0  0  0  0
    5.8171   -8.6377   23.5467 C   0  0  0  0  0  0  0  0  0  0  0  0
    4.8609   -9.4088   24.4383 C   0  0  0  0  0  0  0  0  0  0  0  0
    5.1776  -10.8381   24.0353 C   0  0  1  0  0  0  0  0  0  0  0  0
    4.2882  -11.8239   24.5356 N   0  0  0  0  0  0  0  0  0  0  0  0
    4.5178  -13.3074   24.8443 C   0  0  0  0  0  0  0  0  0  0  0  0
    5.4507  -13.9791   24.6665 O   0  0  0  0  0  0  0  0  0  0  0  0
    3.3146  -13.8160   25.5231 C   0  0  0  0  0  0  0  0  0  0  0  0
    2.1131  -13.2013   25.4036 N   0  0  0  0  0  0  0  0  0  0  0  0
    1.3051  -13.9386   26.1811 N   0  0  0  0  0  0  0  0  0  0  0  0
   -0.0967  -13.6190   26.2597 C   0  0  0  0  0  0  0  0  0  0  0  0
    1.9351  -14.9421   26.8449 C   0  0  0  0  0  0  0  0  0  0  0  0
    3.2374  -14.9082   26.4167 C   0  0  0  0  0  0  0  0  0  0  0  0
    4.4982  -15.9120   26.9134 Cl  0  0  0  0  0  0  0  0  0  0  0  0
    5.2242  -10.7980   22.5215 C   0  0  0  0  0  0  0  0  0  0  0  0
  2  1  1  6
  2  3  1  0
  3  4  1  0
  4  5  1  0
  5  6  1  6
  6  7  1  0
  7  8  2  0
  7  9  1  0
  9 10  2  0
 10 11  1  0
 11 12  1  0
 11 13  1  0
 13 14  2  0
 14 15  1  0
  5 16  1  0
 16  2  1  0
 14  9  1  0
M  END
>  <inchikey>  (654) 
WTAKJBAKYTVRQO-UHFFFAOYSA-N

>  <tags>  (654) 
fragmenstein_placed,CpKRS_FrAncestor_bulkdock_iter2

>  <ref_pdb>  (654) 
x0602b

>  <energy_score>  (654) 
-7.764348

>  <distance_score>  (654) 
0.382814

>  <HIPPO Pose ID>  (654) 
55982

>  <ref_mols>  (654) 
x0421c

>  <smiles>  (654) 
C[C@H]1CC[C@@H](NC(=O)c2nn(C)cc2Cl)C1

>  <HIPPO Compound ID>  (654) 
132610

>  <alias>  (654) 
WTAKJBAKYTVRQO-JGVFFNPUSA-N-P13

>  <subsites>  (654) 


>  <placement_batch>  (654) 
CpKRS_FrAncestor_bulkdock_iter2

>  <name>  (654) 
WTAKJBAKYTVRQO-JGVFFNPUSA-N-P13

$$$$
RAAGLLKDSRSWMO-JGVFFNPUSA-N-P13
     RDKit          3D

 16 17  0  0  0  0  0  0  0  0999 V2000
    4.8530   -8.7838   21.2247 C   0  0  0  0  0  0  0  0  0  0  0  0
    5.7288   -9.4926   22.2181 C   0  0  1  0  0  0  0  0  0  0  0  0
    5.7329   -8.7179   23.5419 C   0  0  0  0  0  0  0  0  0  0  0  0
    4.8215   -9.5323   24.4432 C   0  0  0  0  0  0  0  0  0  0  0  0
    5.1962  -10.9486   24.0374 C   0  0  1  0  0  0  0  0  0  0  0  0
    4.3802  -11.9807   24.5761 N   0  0  0  0  0  0  0  0  0  0  0  0
    4.7238  -13.4303   24.9543 C   0  0  0  0  0  0  0  0  0  0  0  0
    5.7098  -14.0335   24.8139 O   0  0  0  0  0  0  0  0  0  0  0  0
    3.5676  -14.0058   25.6523 C   0  0  0  0  0  0  0  0  0  0  0  0
    2.3342  -13.4444   25.6038 N   0  0  0  0  0  0  0  0  0  0  0  0
    1.6029  -14.2220   26.4240 N   0  0  0  0  0  0  0  0  0  0  0  0
    0.2109  -13.9181   26.6344 C   0  0  0  0  0  0  0  0  0  0  0  0
    2.2984  -15.2389   27.0019 C   0  0  0  0  0  0  0  0  0  0  0  0
    3.5643  -15.1259   26.5006 C   0  0  0  0  0  0  0  0  0  0  0  0
    4.6026  -15.9030   26.8203 F   0  0  0  0  0  0  0  0  0  0  0  0
    5.1952  -10.8964   22.5226 C   0  0  0  0  0  0  0  0  0  0  0  0
  2  1  1  6
  2  3  1  0
  3  4  1  0
  4  5  1  0
  5  6  1  6
  6  7  1  0
  7  8  2  0
  7  9  1  0
  9 10  2  0
 10 11  1  0
 11 12  1  0
 11 13  1  0
 13 14  2  0
 14 15  1  0
  5 16  1  0
 16  2  1  0
 14  9  1  0
M  END
>  <inchikey>  (655) 
RAAGLLKDSRSWMO-UHFFFAOYSA-N

>  <tags>  (655) 
fragmenstein_placed,CpKRS_FrAncestor_bulkdock_iter2

>  <ref_pdb>  (655) 
x0602b

>  <energy_score>  (655) 
-6.314639

>  <distance_score>  (655) 
0.427463

>  <HIPPO Pose ID>  (655) 
55986

>  <ref_mols>  (655) 
x0421c

>  <smiles>  (655) 
C[C@H]1CC[C@@H](NC(=O)c2nn(C)cc2F)C1

>  <HIPPO Compound ID>  (655) 
129749

>  <alias>  (655) 
RAAGLLKDSRSWMO-JGVFFNPUSA-N-P13

>  <subsites>  (655) 


>  <placement_batch>  (655) 
CpKRS_FrAncestor_bulkdock_iter2

>  <name>  (655) 
RAAGLLKDSRSWMO-JGVFFNPUSA-N-P13

$$$$
UHINIPNIAQOKLX-NKWVEPMBSA-N-P13
     RDKit          3D

 17 18  0  0  0  0  0  0  0  0999 V2000
    4.8734   -8.7075   21.2390 C   0  0  0  0  0  0  0  0  0  0  0  0
    5.7710   -9.4431   22.1928 C   0  0  1  0  0  0  0  0  0  0  0  0
    5.8301   -8.6846   23.5240 C   0  0  0  0  0  0  0  0  0  0  0  0
    4.8751   -9.4531   24.4178 C   0  0  0  0  0  0  0  0  0  0  0  0
    5.1781  -10.8841   24.0066 C   0  0  1  0  0  0  0  0  0  0  0  0
    4.2845  -11.8598   24.5208 N   0  0  0  0  0  0  0  0  0  0  0  0
    4.4844  -13.3593   24.7737 C   0  0  0  0  0  0  0  0  0  0  0  0
    5.3871  -14.0514   24.5302 O   0  0  0  0  0  0  0  0  0  0  0  0
    3.3145  -13.8381   25.5245 C   0  0  0  0  0  0  0  0  0  0  0  0
    2.0991  -13.2535   25.3907 N   0  0  0  0  0  0  0  0  0  0  0  0
    1.3509  -13.8702   26.3254 N   0  0  0  0  0  0  0  0  0  0  0  0
   -0.0632  -13.6016   26.3694 C   0  0  0  0  0  0  0  0  0  0  0  0
    2.0728  -14.7063   27.1169 C   0  0  0  0  0  0  0  0  0  0  0  0
    1.4243  -15.3459   28.5534 Cl  0  0  0  0  0  0  0  0  0  0  0  0
    3.3153  -14.8077   26.5572 C   0  0  0  0  0  0  0  0  0  0  0  0
    4.6244  -15.7379   27.0735 Cl  0  0  0  0  0  0  0  0  0  0  0  0
    5.2144  -10.8372   22.4931 C   0  0  0  0  0  0  0  0  0  0  0  0
  2  1  1  6
  2  3  1  0
  3  4  1  0
  4  5  1  0
  5  6  1  6
  6  7  1  0
  7  8  2  0
  7  9  1  0
  9 10  2  0
 10 11  1  0
 11 12  1  0
 11 13  1  0
 13 14  1  0
 13 15  2  0
 15 16  1  0
  5 17  1  0
 17  2  1  0
 15  9  1  0
M  END
>  <inchikey>  (656) 
UHINIPNIAQOKLX-UHFFFAOYSA-N

>  <tags>  (656) 
fragmenstein_placed,CpKRS_FrAncestor_bulkdock_iter2

>  <ref_pdb>  (656) 
x0602b

>  <energy_score>  (656) 
-11.420223

>  <distance_score>  (656) 
0.371865

>  <HIPPO Pose ID>  (656) 
55990

>  <ref_mols>  (656) 
x0421c

>  <smiles>  (656) 
C[C@H]1CC[C@@H](NC(=O)c2nn(C)c(Cl)c2Cl)C1

>  <HIPPO Compound ID>  (656) 
447756

>  <alias>  (656) 
UHINIPNIAQOKLX-NKWVEPMBSA-N-P13

>  <subsites>  (656) 


>  <placement_batch>  (656) 
CpKRS_FrAncestor_bulkdock_iter2

>  <name>  (656) 
UHINIPNIAQOKLX-NKWVEPMBSA-N-P13

$$$$
AZGJNYIGIRQLIL-NKWVEPMBSA-N-P13
     RDKit          3D

 18 19  0  0  0  0  0  0  0  0999 V2000
    4.8791   -8.7044   21.2501 C   0  0  0  0  0  0  0  0  0  0  0  0
    5.7782   -9.4322   22.2092 C   0  0  1  0  0  0  0  0  0  0  0  0
    5.8308   -8.6711   23.5389 C   0  0  0  0  0  0  0  0  0  0  0  0
    4.8734   -9.4391   24.4313 C   0  0  0  0  0  0  0  0  0  0  0  0
    5.1811  -10.8711   24.0274 C   0  0  1  0  0  0  0  0  0  0  0  0
    4.2763  -11.8455   24.5262 N   0  0  0  0  0  0  0  0  0  0  0  0
    4.4988  -13.3202   24.8866 C   0  0  0  0  0  0  0  0  0  0  0  0
    5.4389  -13.9939   24.7607 O   0  0  0  0  0  0  0  0  0  0  0  0
    3.2676  -13.8126   25.5288 C   0  0  0  0  0  0  0  0  0  0  0  0
    2.0736  -13.2112   25.3161 N   0  0  0  0  0  0  0  0  0  0  0  0
    1.2173  -13.9004   26.1052 N   0  0  0  0  0  0  0  0  0  0  0  0
   -0.2026  -13.5688   26.0860 C   0  0  0  0  0  0  0  0  0  0  0  0
   -0.9500  -14.4239   26.8439 F   0  0  0  0  0  0  0  0  0  0  0  0
   -0.4252  -12.3313   26.5974 F   0  0  0  0  0  0  0  0  0  0  0  0
    1.8251  -14.8771   26.8374 C   0  0  0  0  0  0  0  0  0  0  0  0
    3.1451  -14.8670   26.4616 C   0  0  0  0  0  0  0  0  0  0  0  0
    4.3792  -15.8569   27.0496 Cl  0  0  0  0  0  0  0  0  0  0  0  0
    5.2290  -10.8280   22.5129 C   0  0  0  0  0  0  0  0  0  0  0  0
  2  1  1  6
  2  3  1  0
  3  4  1  0
  4  5  1  0
  5  6  1  6
  6  7  1  0
  7  8  2  0
  7  9  1  0
  9 10  2  0
 10 11  1  0
 11 12  1  0
 12 13  1  0
 12 14  1  0
 11 15  1  0
 15 16  2  0
 16 17  1  0
  5 18  1  0
 18  2  1  0
 16  9  1  0
M  END
>  <inchikey>  (657) 
AZGJNYIGIRQLIL-UHFFFAOYSA-N

>  <tags>  (657) 
fragmenstein_placed,CpKRS_FrAncestor_bulkdock_iter2

>  <ref_pdb>  (657) 
x0602b

>  <energy_score>  (657) 
-13.792103

>  <distance_score>  (657) 
0.429616

>  <HIPPO Pose ID>  (657) 
55994

>  <ref_mols>  (657) 
x0421c

>  <smiles>  (657) 
C[C@H]1CC[C@@H](NC(=O)c2nn(C(F)F)cc2Cl)C1

>  <HIPPO Compound ID>  (657) 
447757

>  <alias>  (657) 
AZGJNYIGIRQLIL-NKWVEPMBSA-N-P13

>  <subsites>  (657) 


>  <placement_batch>  (657) 
CpKRS_FrAncestor_bulkdock_iter2

>  <name>  (657) 
AZGJNYIGIRQLIL-NKWVEPMBSA-N-P13

$$$$
UQALSSGVSYPSDV-JGVFFNPUSA-N-P20
     RDKit          3D

 15 16  0  0  0  0  0  0  0  0999 V2000
    3.9812    3.3531   45.8861 C   0  0  0  0  0  0  0  0  0  0  0  0
    2.7304    4.1372   45.9671 C   0  0  1  0  0  0  0  0  0  0  0  0
    2.1122    4.5603   47.2686 C   0  0  0  0  0  0  0  0  0  0  0  0
    2.7662    5.5871   46.3753 C   0  0  2  0  0  0  0  0  0  0  0  0
    1.9831    6.5553   45.5497 C   0  0  0  0  0  0  0  0  0  0  0  0
    2.7302    6.8073   44.3524 N   0  0  0  0  0  0  0  0  0  0  0  0
    3.0276    5.8941   43.1472 C   0  0  0  0  0  0  0  0  0  0  0  0
    2.7776    4.7684   42.9717 O   0  0  0  0  0  0  0  0  0  0  0  0
    3.8438    6.6383   42.1352 C   0  0  0  0  0  0  0  0  0  0  0  0
    4.5348    5.9445   41.1655 C   0  0  0  0  0  0  0  0  0  0  0  0
    5.2397    6.7011   40.2487 C   0  0  0  0  0  0  0  0  0  0  0  0
    6.1186    5.8648   38.8445 Br  0  0  0  0  0  0  0  0  0  0  0  0
    5.2794    8.0834   40.3197 C   0  0  0  0  0  0  0  0  0  0  0  0
    4.5852    8.6803   41.3429 C   0  0  0  0  0  0  0  0  0  0  0  0
    3.8977    7.9898   42.2741 N   0  0  0  0  0  0  0  0  0  0  0  0
  2  1  1  1
  2  3  1  0
  3  4  1  0
  4  5  1  6
  5  6  1  0
  6  7  1  0
  7  8  2  0
  7  9  1  0
  9 10  2  0
 10 11  1  0
 11 12  1  0
 11 13  2  0
 13 14  1  0
 14 15  2  0
  4  2  1  0
 15  9  1  0
M  END
>  <inchikey>  (658) 
UQALSSGVSYPSDV-UHFFFAOYSA-N

>  <tags>  (658) 
fragmenstein_placed,CpKRS_FrAncestor_bulkdock_iter2

>  <ref_pdb>  (658) 
x0602b

>  <energy_score>  (658) 
-2.361233

>  <distance_score>  (658) 
0.953087

>  <HIPPO Pose ID>  (658) 
55996

>  <ref_mols>  (658) 
x0456a

>  <smiles>  (658) 
C[C@H]1C[C@@H]1CNC(=O)c1cc(Br)ccn1

>  <HIPPO Compound ID>  (658) 
303752

>  <alias>  (658) 
UQALSSGVSYPSDV-JGVFFNPUSA-N-P20

>  <subsites>  (658) 


>  <placement_batch>  (658) 
CpKRS_FrAncestor_bulkdock_iter2

>  <name>  (658) 
UQALSSGVSYPSDV-JGVFFNPUSA-N-P20

$$$$
KIWZQTZXYKPIIC-IUCAKERBSA-N-P20
     RDKit          3D

 14 15  0  0  0  0  0  0  0  0999 V2000
    1.2416    4.4558   47.1747 C   0  0  0  0  0  0  0  0  0  0  0  0
    2.6894    4.6356   47.0124 C   0  0  1  0  0  0  0  0  0  0  0  0
    3.4235    4.0508   45.8454 C   0  0  0  0  0  0  0  0  0  0  0  0
    3.2596    5.5530   45.9569 C   0  0  1  0  0  0  0  0  0  0  0  0
    2.4105    6.2781   44.9577 C   0  0  0  0  0  0  0  0  0  0  0  0
    3.1620    6.4319   43.7520 N   0  0  0  0  0  0  0  0  0  0  0  0
    3.6483    5.3832   42.7368 C   0  0  0  0  0  0  0  0  0  0  0  0
    3.5803    4.2200   42.7609 O   0  0  0  0  0  0  0  0  0  0  0  0
    4.3960    6.0675   41.6265 C   0  0  0  0  0  0  0  0  0  0  0  0
    5.0832    5.3013   40.6917 C   0  0  0  0  0  0  0  0  0  0  0  0
    5.8283    5.9653   39.7283 C   0  0  0  0  0  0  0  0  0  0  0  0
    5.8725    7.3547   39.7392 C   0  0  0  0  0  0  0  0  0  0  0  0
    5.1782    8.0359   40.7276 C   0  0  0  0  0  0  0  0  0  0  0  0
    4.4513    7.4314   41.6918 N   0  0  0  0  0  0  0  0  0  0  0  0
  2  1  1  6
  2  3  1  0
  3  4  1  0
  4  5  1  6
  5  6  1  0
  6  7  1  0
  7  8  2  0
  7  9  1  0
  9 10  2  0
 10 11  1  0
 11 12  2  0
 12 13  1  0
 13 14  2  0
  4  2  1  0
 14  9  1  0
M  END
>  <inchikey>  (659) 
KIWZQTZXYKPIIC-UHFFFAOYSA-N

>  <tags>  (659) 
fragmenstein_placed,CpKRS_FrAncestor_bulkdock_iter2

>  <ref_pdb>  (659) 
x0602b

>  <energy_score>  (659) 
-1.384254

>  <distance_score>  (659) 
0.546801

>  <HIPPO Pose ID>  (659) 
55998

>  <ref_mols>  (659) 
x0456a

>  <smiles>  (659) 
C[C@H]1C[C@H]1CNC(=O)c1ccccn1

>  <HIPPO Compound ID>  (659) 
447498

>  <alias>  (659) 
KIWZQTZXYKPIIC-IUCAKERBSA-N-P20

>  <subsites>  (659) 


>  <placement_batch>  (659) 
CpKRS_FrAncestor_bulkdock_iter2

>  <name>  (659) 
KIWZQTZXYKPIIC-IUCAKERBSA-N-P20

$$$$
IPFWNFUWXTVORD-JGVFFNPUSA-N-P20
     RDKit          3D

 15 16  0  0  0  0  0  0  0  0999 V2000
    3.9852    3.3740   45.8608 C   0  0  0  0  0  0  0  0  0  0  0  0
    2.7411    4.1696   45.9342 C   0  0  1  0  0  0  0  0  0  0  0  0
    2.1380    4.6188   47.2328 C   0  0  0  0  0  0  0  0  0  0  0  0
    2.7873    5.6279   46.3130 C   0  0  2  0  0  0  0  0  0  0  0  0
    1.9895    6.5838   45.4848 C   0  0  0  0  0  0  0  0  0  0  0  0
    2.6925    6.8137   44.2554 N   0  0  0  0  0  0  0  0  0  0  0  0
    3.0297    5.8513   43.0997 C   0  0  0  0  0  0  0  0  0  0  0  0
    2.7233    4.7387   42.9283 O   0  0  0  0  0  0  0  0  0  0  0  0
    3.9243    6.5261   42.1020 C   0  0  0  0  0  0  0  0  0  0  0  0
    4.5864    5.7657   41.1594 C   0  0  0  0  0  0  0  0  0  0  0  0
    5.3355    6.4479   40.2199 C   0  0  0  0  0  0  0  0  0  0  0  0
    6.0949    5.5875   38.9715 Cl  0  0  0  0  0  0  0  0  0  0  0  0
    5.4502    7.8274   40.2501 C   0  0  0  0  0  0  0  0  0  0  0  0
    4.7932    8.4943   41.2580 C   0  0  0  0  0  0  0  0  0  0  0  0
    4.0604    7.8760   42.2092 N   0  0  0  0  0  0  0  0  0  0  0  0
  2  1  1  1
  2  3  1  0
  3  4  1  0
  4  5  1  6
  5  6  1  0
  6  7  1  0
  7  8  2  0
  7  9  1  0
  9 10  2  0
 10 11  1  0
 11 12  1  0
 11 13  2  0
 13 14  1  0
 14 15  2  0
  4  2  1  0
 15  9  1  0
M  END
>  <inchikey>  (660) 
IPFWNFUWXTVORD-UHFFFAOYSA-N

>  <tags>  (660) 
fragmenstein_placed,CpKRS_FrAncestor_bulkdock_iter2

>  <ref_pdb>  (660) 
x0602b

>  <energy_score>  (660) 
-3.519741

>  <distance_score>  (660) 
0.831686

>  <HIPPO Pose ID>  (660) 
55999

>  <ref_mols>  (660) 
x0456a

>  <smiles>  (660) 
C[C@H]1C[C@@H]1CNC(=O)c1cc(Cl)ccn1

>  <HIPPO Compound ID>  (660) 
314190

>  <alias>  (660) 
IPFWNFUWXTVORD-JGVFFNPUSA-N-P20

>  <subsites>  (660) 


>  <placement_batch>  (660) 
CpKRS_FrAncestor_bulkdock_iter2

>  <name>  (660) 
IPFWNFUWXTVORD-JGVFFNPUSA-N-P20

$$$$
FFCINIBDUQDXAY-UHFFFAOYSA-N-P29
     RDKit          3D

 18 19  0  0  0  0  0  0  0  0999 V2000
    3.4005    6.5066   40.7939 O   0  0  0  0  0  0  0  0  0  0  0  0
    3.1511    7.2595   41.6487 C   0  0  0  0  0  0  0  0  0  0  0  0
    3.0512    7.0444   43.1734 N   0  0  0  0  0  0  0  0  0  0  0  0
    3.1405    5.8869   43.9251 C   0  0  0  0  0  0  0  0  0  0  0  0
    3.6311    4.7078   43.3639 C   0  0  0  0  0  0  0  0  0  0  0  0
    3.8558    3.6206   44.1877 C   0  0  0  0  0  0  0  0  0  0  0  0
    4.4318    2.5150   43.6908 F   0  0  0  0  0  0  0  0  0  0  0  0
    3.5601    3.7015   45.5380 C   0  0  0  0  0  0  0  0  0  0  0  0
    4.0631    2.3011   46.6316 Br  0  0  0  0  0  0  0  0  0  0  0  0
    2.9882    4.8402   46.0750 C   0  0  0  0  0  0  0  0  0  0  0  0
    2.6701    4.9091   47.3736 F   0  0  0  0  0  0  0  0  0  0  0  0
    2.7901    5.9470   45.2751 C   0  0  0  0  0  0  0  0  0  0  0  0
    2.9090    8.6772   41.3132 C   0  0  0  0  0  0  0  0  0  0  0  0
    1.7929    9.3456   41.8095 C   0  0  0  0  0  0  0  0  0  0  0  0
    1.6382   10.6658   41.4454 C   0  0  0  0  0  0  0  0  0  0  0  0
    2.4935   11.3228   40.6309 N   0  0  0  0  0  0  0  0  0  0  0  0
    3.5614   10.6372   40.1644 C   0  0  0  0  0  0  0  0  0  0  0  0
    3.8156    9.3186   40.4754 C   0  0  0  0  0  0  0  0  0  0  0  0
  1  2  2  0
  2  3  1  0
  3  4  1  0
  4  5  2  0
  5  6  1  0
  6  7  1  0
  6  8  2  0
  8  9  1  0
  8 10  1  0
 10 11  1  0
 10 12  2  0
  2 13  1  0
 13 14  2  0
 14 15  1  0
 15 16  2  0
 16 17  1  0
 17 18  2  0
 12  4  1  0
 18 13  1  0
M  END
>  <inchikey>  (661) 
FFCINIBDUQDXAY-UHFFFAOYSA-N

>  <tags>  (661) 
fragmenstein_placed,CpKRS_FrAncestor_bulkdock_iter2

>  <ref_pdb>  (661) 
x0485c

>  <energy_score>  (661) 
-11.133782

>  <distance_score>  (661) 
0.975594

>  <HIPPO Pose ID>  (661) 
56001

>  <ref_mols>  (661) 
x0485c

>  <smiles>  (661) 
O=C(Nc1cc(F)c(Br)c(F)c1)c1ccncc1

>  <HIPPO Compound ID>  (661) 
34254

>  <alias>  (661) 
FFCINIBDUQDXAY-UHFFFAOYSA-N-P29

>  <subsites>  (661) 


>  <placement_batch>  (661) 
CpKRS_FrAncestor_bulkdock_iter2

>  <name>  (661) 
FFCINIBDUQDXAY-UHFFFAOYSA-N-P29

$$$$
JXMGZRNIQUBOHO-UHFFFAOYSA-N-P30
     RDKit          3D

 18 19  0  0  0  0  0  0  0  0999 V2000
    4.8636  -13.5221   24.4759 O   0  0  0  0  0  0  0  0  0  0  0  0
    4.1805  -12.9708   25.2436 C   0  0  0  0  0  0  0  0  0  0  0  0
    3.9200  -11.4588   25.4494 N   0  0  0  0  0  0  0  0  0  0  0  0
    4.3539  -10.3679   24.7236 C   0  0  0  0  0  0  0  0  0  0  0  0
    4.4853   -9.0849   25.2571 C   0  0  0  0  0  0  0  0  0  0  0  0
    5.0736   -8.0826   24.4899 C   0  0  0  0  0  0  0  0  0  0  0  0
    5.3241   -6.8815   25.0194 F   0  0  0  0  0  0  0  0  0  0  0  0
    5.3593   -8.2870   23.1610 C   0  0  0  0  0  0  0  0  0  0  0  0
    5.0906   -9.5361   22.6433 C   0  0  0  0  0  0  0  0  0  0  0  0
    5.0369   -9.8024   20.8376 Br  0  0  0  0  0  0  0  0  0  0  0  0
    4.6827  -10.6006   23.4116 C   0  0  0  0  0  0  0  0  0  0  0  0
    3.4923  -13.7867   26.2694 C   0  0  0  0  0  0  0  0  0  0  0  0
    4.2478  -14.7859   26.8914 C   0  0  0  0  0  0  0  0  0  0  0  0
    3.6674  -15.5019   27.9196 C   0  0  0  0  0  0  0  0  0  0  0  0
    2.4182  -15.2744   28.3749 N   0  0  0  0  0  0  0  0  0  0  0  0
    1.7065  -14.3348   27.7128 C   0  0  0  0  0  0  0  0  0  0  0  0
    2.1678  -13.5978   26.6372 C   0  0  0  0  0  0  0  0  0  0  0  0
    0.9415  -12.4881   25.7200 Br  0  0  0  0  0  0  0  0  0  0  0  0
  1  2  2  0
  2  3  1  0
  3  4  1  0
  4  5  2  0
  5  6  1  0
  6  7  1  0
  6  8  2  0
  8  9  1  0
  9 10  1  0
  9 11  2  0
  2 12  1  0
 12 13  2  0
 13 14  1  0
 14 15  2  0
 15 16  1  0
 16 17  2  0
 17 18  1  0
 11  4  1  0
 17 12  1  0
M  END
>  <inchikey>  (662) 
JXMGZRNIQUBOHO-UHFFFAOYSA-N

>  <tags>  (662) 
fragmenstein_placed,CpKRS_FrAncestor_bulkdock_iter2

>  <ref_pdb>  (662) 
x0485c

>  <energy_score>  (662) 
-11.490001

>  <distance_score>  (662) 
0.658318

>  <HIPPO Pose ID>  (662) 
56002

>  <ref_mols>  (662) 
x0485a

>  <smiles>  (662) 
O=C(Nc1cc(F)cc(Br)c1)c1ccncc1Br

>  <HIPPO Compound ID>  (662) 
34255

>  <alias>  (662) 
JXMGZRNIQUBOHO-UHFFFAOYSA-N-P30

>  <subsites>  (662) 


>  <placement_batch>  (662) 
CpKRS_FrAncestor_bulkdock_iter2

>  <name>  (662) 
JXMGZRNIQUBOHO-UHFFFAOYSA-N-P30

$$$$
XATRLBOLAZJPCF-UHFFFAOYSA-N-P30
     RDKit          3D

 18 19  0  0  0  0  0  0  0  0999 V2000
    4.8541  -13.5198   24.5029 O   0  0  0  0  0  0  0  0  0  0  0  0
    4.1633  -12.9689   25.2646 C   0  0  0  0  0  0  0  0  0  0  0  0
    3.8888  -11.4576   25.4589 N   0  0  0  0  0  0  0  0  0  0  0  0
    4.3158  -10.3680   24.7270 C   0  0  0  0  0  0  0  0  0  0  0  0
    4.4532   -9.0849   25.2591 C   0  0  0  0  0  0  0  0  0  0  0  0
    5.0531   -8.0883   24.4934 C   0  0  0  0  0  0  0  0  0  0  0  0
    5.3125   -6.8890   25.0229 F   0  0  0  0  0  0  0  0  0  0  0  0
    5.3456   -8.2969   23.1665 C   0  0  0  0  0  0  0  0  0  0  0  0
    5.0706   -9.5446   22.6486 C   0  0  0  0  0  0  0  0  0  0  0  0
    5.0410   -9.8149   20.8427 Br  0  0  0  0  0  0  0  0  0  0  0  0
    4.6483  -10.6044   23.4163 C   0  0  0  0  0  0  0  0  0  0  0  0
    3.4908  -13.7921   26.2965 C   0  0  0  0  0  0  0  0  0  0  0  0
    4.2471  -14.8153   26.8796 C   0  0  0  0  0  0  0  0  0  0  0  0
    3.6830  -15.5463   27.9067 C   0  0  0  0  0  0  0  0  0  0  0  0
    2.4472  -15.3162   28.3952 N   0  0  0  0  0  0  0  0  0  0  0  0
    1.7341  -14.3509   27.7726 C   0  0  0  0  0  0  0  0  0  0  0  0
    2.1814  -13.5905   26.7062 C   0  0  0  0  0  0  0  0  0  0  0  0
    1.0773  -12.5079   25.9529 Cl  0  0  0  0  0  0  0  0  0  0  0  0
  1  2  2  0
  2  3  1  0
  3  4  1  0
  4  5  2  0
  5  6  1  0
  6  7  1  0
  6  8  2  0
  8  9  1  0
  9 10  1  0
  9 11  2  0
  2 12  1  0
 12 13  2  0
 13 14  1  0
 14 15  2  0
 15 16  1  0
 16 17  2  0
 17 18  1  0
 11  4  1  0
 17 12  1  0
M  END
>  <inchikey>  (663) 
XATRLBOLAZJPCF-UHFFFAOYSA-N

>  <tags>  (663) 
fragmenstein_placed,CpKRS_FrAncestor_bulkdock_iter2

>  <ref_pdb>  (663) 
x0485c

>  <energy_score>  (663) 
-6.987912

>  <distance_score>  (663) 
0.675639

>  <HIPPO Pose ID>  (663) 
56005

>  <ref_mols>  (663) 
x0485a

>  <smiles>  (663) 
O=C(Nc1cc(F)cc(Br)c1)c1ccncc1Cl

>  <HIPPO Compound ID>  (663) 
34256

>  <alias>  (663) 
XATRLBOLAZJPCF-UHFFFAOYSA-N-P30

>  <subsites>  (663) 


>  <placement_batch>  (663) 
CpKRS_FrAncestor_bulkdock_iter2

>  <name>  (663) 
XATRLBOLAZJPCF-UHFFFAOYSA-N-P30

$$$$
KENAFKRWJAGQTA-UHFFFAOYSA-N-P30
     RDKit          3D

 18 19  0  0  0  0  0  0  0  0999 V2000
    5.3429  -13.4501   24.6240 O   0  0  0  0  0  0  0  0  0  0  0  0
    4.5160  -12.8419   25.1818 C   0  0  0  0  0  0  0  0  0  0  0  0
    4.1502  -11.3362   25.1030 N   0  0  0  0  0  0  0  0  0  0  0  0
    4.6479  -10.3235   24.2787 C   0  0  0  0  0  0  0  0  0  0  0  0
    4.7655   -9.0423   24.8215 C   0  0  0  0  0  0  0  0  0  0  0  0
    5.2853   -8.0110   24.0474 C   0  0  0  0  0  0  0  0  0  0  0  0
    5.4692   -6.8017   24.5876 F   0  0  0  0  0  0  0  0  0  0  0  0
    5.5922   -8.1978   22.7106 C   0  0  0  0  0  0  0  0  0  0  0  0
    5.4419   -9.4540   22.1486 C   0  0  0  0  0  0  0  0  0  0  0  0
    4.9789  -10.5141   22.9315 C   0  0  0  0  0  0  0  0  0  0  0  0
    4.5909  -12.0927   21.9999 Br  0  0  0  0  0  0  0  0  0  0  0  0
    3.6572  -13.5985   26.1441 C   0  0  0  0  0  0  0  0  0  0  0  0
    4.2804  -14.6586   26.8209 C   0  0  0  0  0  0  0  0  0  0  0  0
    3.5594  -15.3795   27.7557 C   0  0  0  0  0  0  0  0  0  0  0  0
    2.2767  -15.1155   28.0725 N   0  0  0  0  0  0  0  0  0  0  0  0
    1.6887  -14.1256   27.3644 C   0  0  0  0  0  0  0  0  0  0  0  0
    2.3074  -13.3598   26.3852 C   0  0  0  0  0  0  0  0  0  0  0  0
    1.2092  -12.1467   25.4321 Br  0  0  0  0  0  0  0  0  0  0  0  0
  1  2  2  0
  2  3  1  0
  3  4  1  0
  4  5  2  0
  5  6  1  0
  6  7  1  0
  6  8  2  0
  8  9  1  0
  9 10  2  0
 10 11  1  0
  2 12  1  0
 12 13  2  0
 13 14  1  0
 14 15  2  0
 15 16  1  0
 16 17  2  0
 17 18  1  0
 10  4  1  0
 17 12  1  0
M  END
>  <inchikey>  (664) 
KENAFKRWJAGQTA-UHFFFAOYSA-N

>  <tags>  (664) 
fragmenstein_placed,CpKRS_FrAncestor_bulkdock_iter2

>  <ref_pdb>  (664) 
x0485c

>  <energy_score>  (664) 
-11.963517

>  <distance_score>  (664) 
0.328389

>  <HIPPO Pose ID>  (664) 
56011

>  <ref_mols>  (664) 
x0485a

>  <smiles>  (664) 
O=C(Nc1cc(F)ccc1Br)c1ccncc1Br

>  <HIPPO Compound ID>  (664) 
34258

>  <alias>  (664) 
KENAFKRWJAGQTA-UHFFFAOYSA-N-P30

>  <subsites>  (664) 


>  <placement_batch>  (664) 
CpKRS_FrAncestor_bulkdock_iter2

>  <name>  (664) 
KENAFKRWJAGQTA-UHFFFAOYSA-N-P30

$$$$
MBXJVZDYHNCPEM-UHFFFAOYSA-N-P30
     RDKit          3D

 18 19  0  0  0  0  0  0  0  0999 V2000
    5.3657  -13.4372   24.6592 O   0  0  0  0  0  0  0  0  0  0  0  0
    4.5218  -12.8363   25.1998 C   0  0  0  0  0  0  0  0  0  0  0  0
    4.1358  -11.3363   25.1029 N   0  0  0  0  0  0  0  0  0  0  0  0
    4.6312  -10.3236   24.2781 C   0  0  0  0  0  0  0  0  0  0  0  0
    4.7454   -9.0414   24.8186 C   0  0  0  0  0  0  0  0  0  0  0  0
    5.2734   -8.0133   24.0459 C   0  0  0  0  0  0  0  0  0  0  0  0
    5.4582   -6.8037   24.5848 F   0  0  0  0  0  0  0  0  0  0  0  0
    5.5895   -8.2040   22.7116 C   0  0  0  0  0  0  0  0  0  0  0  0
    5.4421   -9.4614   22.1516 C   0  0  0  0  0  0  0  0  0  0  0  0
    4.9737  -10.5190   22.9345 C   0  0  0  0  0  0  0  0  0  0  0  0
    4.6003  -12.1050   22.0097 Br  0  0  0  0  0  0  0  0  0  0  0  0
    3.6705  -13.6028   26.1627 C   0  0  0  0  0  0  0  0  0  0  0  0
    4.2855  -14.6932   26.7999 C   0  0  0  0  0  0  0  0  0  0  0  0
    3.5679  -15.4282   27.7267 C   0  0  0  0  0  0  0  0  0  0  0  0
    2.2945  -15.1534   28.0712 N   0  0  0  0  0  0  0  0  0  0  0  0
    1.7151  -14.1298   27.4047 C   0  0  0  0  0  0  0  0  0  0  0  0
    2.3331  -13.3421   26.4423 C   0  0  0  0  0  0  0  0  0  0  0  0
    1.3626  -12.1524   25.6614 Cl  0  0  0  0  0  0  0  0  0  0  0  0
  1  2  2  0
  2  3  1  0
  3  4  1  0
  4  5  2  0
  5  6  1  0
  6  7  1  0
  6  8  2  0
  8  9  1  0
  9 10  2  0
 10 11  1  0
  2 12  1  0
 12 13  2  0
 13 14  1  0
 14 15  2  0
 15 16  1  0
 16 17  2  0
 17 18  1  0
 10  4  1  0
 17 12  1  0
M  END
>  <inchikey>  (665) 
MBXJVZDYHNCPEM-UHFFFAOYSA-N

>  <tags>  (665) 
fragmenstein_placed,CpKRS_FrAncestor_bulkdock_iter2

>  <ref_pdb>  (665) 
x0485c

>  <energy_score>  (665) 
-2.156001

>  <distance_score>  (665) 
0.332206

>  <HIPPO Pose ID>  (665) 
56014

>  <ref_mols>  (665) 
x0485a

>  <smiles>  (665) 
O=C(Nc1cc(F)ccc1Br)c1ccncc1Cl

>  <HIPPO Compound ID>  (665) 
34259

>  <alias>  (665) 
MBXJVZDYHNCPEM-UHFFFAOYSA-N-P30

>  <subsites>  (665) 


>  <placement_batch>  (665) 
CpKRS_FrAncestor_bulkdock_iter2

>  <name>  (665) 
MBXJVZDYHNCPEM-UHFFFAOYSA-N-P30

$$$$
CZEXDITZGVQZGC-UHFFFAOYSA-N-P28
     RDKit          3D

 19 20  0  0  0  0  0  0  0  0999 V2000
    3.3963    5.8245   41.3195 O   0  0  0  0  0  0  0  0  0  0  0  0
    3.1968    6.6160   42.1526 C   0  0  0  0  0  0  0  0  0  0  0  0
    3.1137    6.4553   43.6865 N   0  0  0  0  0  0  0  0  0  0  0  0
    3.1628    5.3125   44.4800 C   0  0  0  0  0  0  0  0  0  0  0  0
    3.8581    4.1871   44.0421 C   0  0  0  0  0  0  0  0  0  0  0  0
    4.0540    3.1312   44.9241 C   0  0  0  0  0  0  0  0  0  0  0  0
    4.7758    2.0705   44.5399 F   0  0  0  0  0  0  0  0  0  0  0  0
    3.5261    3.1533   46.2114 C   0  0  0  0  0  0  0  0  0  0  0  0
    2.7703    4.2425   46.6281 C   0  0  0  0  0  0  0  0  0  0  0  0
    2.5963    5.3228   45.7632 C   0  0  0  0  0  0  0  0  0  0  0  0
    1.4909    6.7505   46.3231 Br  0  0  0  0  0  0  0  0  0  0  0  0
    3.0935    8.0365   41.7443 C   0  0  0  0  0  0  0  0  0  0  0  0
    2.1708    8.9068   42.3061 C   0  0  0  0  0  0  0  0  0  0  0  0
    1.3145    8.5074   43.2533 F   0  0  0  0  0  0  0  0  0  0  0  0
    2.1464   10.2226   41.8757 C   0  0  0  0  0  0  0  0  0  0  0  0
    2.9778   10.7225   40.9294 N   0  0  0  0  0  0  0  0  0  0  0  0
    3.8688    9.8513   40.3941 C   0  0  0  0  0  0  0  0  0  0  0  0
    3.9560    8.5197   40.7637 C   0  0  0  0  0  0  0  0  0  0  0  0
    4.8830    7.7437   40.1891 F   0  0  0  0  0  0  0  0  0  0  0  0
  1  2  2  0
  2  3  1  0
  3  4  1  0
  4  5  2  0
  5  6  1  0
  6  7  1  0
  6  8  2  0
  8  9  1  0
  9 10  2  0
 10 11  1  0
  2 12  1  0
 12 13  2  0
 13 14  1  0
 13 15  1  0
 15 16  2  0
 16 17  1  0
 17 18  2  0
 18 19  1  0
 10  4  1  0
 18 12  1  0
M  END
>  <inchikey>  (666) 
CZEXDITZGVQZGC-UHFFFAOYSA-N

>  <tags>  (666) 
fragmenstein_placed,CpKRS_FrAncestor_bulkdock_iter2

>  <ref_pdb>  (666) 
x0485c

>  <energy_score>  (666) 
-12.457926

>  <distance_score>  (666) 
0.377504

>  <HIPPO Pose ID>  (666) 
56024

>  <ref_mols>  (666) 
x0485b

>  <smiles>  (666) 
O=C(Nc1cc(F)ccc1Br)c1c(F)cncc1F

>  <HIPPO Compound ID>  (666) 
34262

>  <alias>  (666) 
CZEXDITZGVQZGC-UHFFFAOYSA-N-P28

>  <subsites>  (666) 


>  <placement_batch>  (666) 
CpKRS_FrAncestor_bulkdock_iter2

>  <name>  (666) 
CZEXDITZGVQZGC-UHFFFAOYSA-N-P28

$$$$
BKJCXINPVIIVSO-UHFFFAOYSA-N-P30
     RDKit          3D

 17 18  0  0  0  0  0  0  0  0999 V2000
    5.2580  -13.6381   24.4144 O   0  0  0  0  0  0  0  0  0  0  0  0
    4.5321  -12.9963   25.0614 C   0  0  0  0  0  0  0  0  0  0  0  0
    4.2180  -11.4839   25.0119 N   0  0  0  0  0  0  0  0  0  0  0  0
    4.6455  -10.5021   24.1264 C   0  0  0  0  0  0  0  0  0  0  0  0
    4.7643   -9.1887   24.5809 C   0  0  0  0  0  0  0  0  0  0  0  0
    5.2460   -8.2133   23.7148 C   0  0  0  0  0  0  0  0  0  0  0  0
    5.4482   -6.9705   24.1686 F   0  0  0  0  0  0  0  0  0  0  0  0
    5.5032   -8.4964   22.3798 C   0  0  0  0  0  0  0  0  0  0  0  0
    5.3438   -9.7965   21.9162 C   0  0  0  0  0  0  0  0  0  0  0  0
    4.9430  -10.7986   22.7925 C   0  0  0  0  0  0  0  0  0  0  0  0
    4.7404  -12.0224   22.2903 F   0  0  0  0  0  0  0  0  0  0  0  0
    3.7187  -13.6934   26.0997 C   0  0  0  0  0  0  0  0  0  0  0  0
    2.3998  -13.3306   26.3612 C   0  0  0  0  0  0  0  0  0  0  0  0
    1.7199  -14.0429   27.3300 C   0  0  0  0  0  0  0  0  0  0  0  0
    2.2410  -15.0701   28.0316 N   0  0  0  0  0  0  0  0  0  0  0  0
    3.5070  -15.4266   27.7163 C   0  0  0  0  0  0  0  0  0  0  0  0
    4.2792  -14.7792   26.7702 C   0  0  0  0  0  0  0  0  0  0  0  0
  1  2  2  0
  2  3  1  0
  3  4  1  0
  4  5  2  0
  5  6  1  0
  6  7  1  0
  6  8  2  0
  8  9  1  0
  9 10  2  0
 10 11  1  0
  2 12  1  0
 12 13  2  0
 13 14  1  0
 14 15  2  0
 15 16  1  0
 16 17  2  0
 10  4  1  0
 17 12  1  0
M  END
>  <inchikey>  (667) 
BKJCXINPVIIVSO-UHFFFAOYSA-N

>  <tags>  (667) 
fragmenstein_placed,CpKRS_FrAncestor_bulkdock_iter2

>  <ref_pdb>  (667) 
x0485c

>  <energy_score>  (667) 
-4.210796

>  <distance_score>  (667) 
0.233407

>  <HIPPO Pose ID>  (667) 
56029

>  <ref_mols>  (667) 
x0485a

>  <smiles>  (667) 
O=C(Nc1cc(F)ccc1F)c1ccncc1

>  <HIPPO Compound ID>  (667) 
34264

>  <alias>  (667) 
BKJCXINPVIIVSO-UHFFFAOYSA-N-P30

>  <subsites>  (667) 


>  <placement_batch>  (667) 
CpKRS_FrAncestor_bulkdock_iter2

>  <name>  (667) 
BKJCXINPVIIVSO-UHFFFAOYSA-N-P30

$$$$
WGZFTVBMVASEBM-UHFFFAOYSA-N-P30
     RDKit          3D

 18 19  0  0  0  0  0  0  0  0999 V2000
    5.0737  -13.6170   24.2735 O   0  0  0  0  0  0  0  0  0  0  0  0
    4.4313  -12.9693   24.9963 C   0  0  0  0  0  0  0  0  0  0  0  0
    4.2141  -11.4448   25.0447 N   0  0  0  0  0  0  0  0  0  0  0  0
    4.6494  -10.4467   24.1890 C   0  0  0  0  0  0  0  0  0  0  0  0
    4.7909   -9.1400   24.6510 C   0  0  0  0  0  0  0  0  0  0  0  0
    5.2537   -8.1632   23.7771 C   0  0  0  0  0  0  0  0  0  0  0  0
    5.4788   -6.9244   24.2310 F   0  0  0  0  0  0  0  0  0  0  0  0
    5.4480   -8.4368   22.4337 C   0  0  0  0  0  0  0  0  0  0  0  0
    5.2495   -9.7311   21.9842 C   0  0  0  0  0  0  0  0  0  0  0  0
    5.3418   -9.9880   20.6786 F   0  0  0  0  0  0  0  0  0  0  0  0
    4.9053  -10.7533   22.8546 C   0  0  0  0  0  0  0  0  0  0  0  0
    3.6718  -13.6791   26.0650 C   0  0  0  0  0  0  0  0  0  0  0  0
    4.3403  -14.7171   26.7258 C   0  0  0  0  0  0  0  0  0  0  0  0
    3.6748  -15.4107   27.7214 C   0  0  0  0  0  0  0  0  0  0  0  0
    2.4121  -15.1374   28.1096 N   0  0  0  0  0  0  0  0  0  0  0  0
    1.7821  -14.1588   27.4221 C   0  0  0  0  0  0  0  0  0  0  0  0
    2.3431  -13.4189   26.3905 C   0  0  0  0  0  0  0  0  0  0  0  0
    1.2114  -12.2073   25.4771 Br  0  0  0  0  0  0  0  0  0  0  0  0
  1  2  2  0
  2  3  1  0
  3  4  1  0
  4  5  2  0
  5  6  1  0
  6  7  1  0
  6  8  2  0
  8  9  1  0
  9 10  1  0
  9 11  2  0
  2 12  1  0
 12 13  2  0
 13 14  1  0
 14 15  2  0
 15 16  1  0
 16 17  2  0
 17 18  1  0
 11  4  1  0
 17 12  1  0
M  END
>  <inchikey>  (668) 
WGZFTVBMVASEBM-UHFFFAOYSA-N

>  <tags>  (668) 
fragmenstein_placed,CpKRS_FrAncestor_bulkdock_iter2

>  <ref_pdb>  (668) 
x0485c

>  <energy_score>  (668) 
-4.501793

>  <distance_score>  (668) 
0.324253

>  <HIPPO Pose ID>  (668) 
56038

>  <ref_mols>  (668) 
x0485a

>  <smiles>  (668) 
O=C(Nc1cc(F)cc(F)c1)c1ccncc1Br

>  <HIPPO Compound ID>  (668) 
34267

>  <alias>  (668) 
WGZFTVBMVASEBM-UHFFFAOYSA-N-P30

>  <subsites>  (668) 


>  <placement_batch>  (668) 
CpKRS_FrAncestor_bulkdock_iter2

>  <name>  (668) 
WGZFTVBMVASEBM-UHFFFAOYSA-N-P30

$$$$
AQSRYRAKACNKKC-UHFFFAOYSA-N-P30
     RDKit          3D

 18 19  0  0  0  0  0  0  0  0999 V2000
    5.1001  -13.6236   24.3122 O   0  0  0  0  0  0  0  0  0  0  0  0
    4.4384  -12.9772   25.0194 C   0  0  0  0  0  0  0  0  0  0  0  0
    4.1992  -11.4548   25.0486 N   0  0  0  0  0  0  0  0  0  0  0  0
    4.6325  -10.4597   24.1886 C   0  0  0  0  0  0  0  0  0  0  0  0
    4.8960  -10.7715   22.8571 C   0  0  0  0  0  0  0  0  0  0  0  0
    5.2441   -9.7521   21.9847 C   0  0  0  0  0  0  0  0  0  0  0  0
    5.3423  -10.0132   20.6803 F   0  0  0  0  0  0  0  0  0  0  0  0
    5.4416   -8.4563   22.4304 C   0  0  0  0  0  0  0  0  0  0  0  0
    5.2402   -8.1777   23.7717 C   0  0  0  0  0  0  0  0  0  0  0  0
    5.4661   -6.9381   24.2229 F   0  0  0  0  0  0  0  0  0  0  0  0
    4.7709   -9.1510   24.6462 C   0  0  0  0  0  0  0  0  0  0  0  0
    3.6854  -13.6921   26.0906 C   0  0  0  0  0  0  0  0  0  0  0  0
    4.3436  -14.7561   26.7215 C   0  0  0  0  0  0  0  0  0  0  0  0
    3.6797  -15.4589   27.7121 C   0  0  0  0  0  0  0  0  0  0  0  0
    2.4264  -15.1741   28.1215 N   0  0  0  0  0  0  0  0  0  0  0  0
    1.8073  -14.1669   27.4654 C   0  0  0  0  0  0  0  0  0  0  0  0
    2.3696  -13.4107   26.4461 C   0  0  0  0  0  0  0  0  0  0  0  0
    1.3703  -12.2343   25.6828 Cl  0  0  0  0  0  0  0  0  0  0  0  0
  1  2  2  0
  2  3  1  0
  3  4  1  0
  4  5  2  0
  5  6  1  0
  6  7  1  0
  6  8  2  0
  8  9  1  0
  9 10  1  0
  9 11  2  0
  2 12  1  0
 12 13  2  0
 13 14  1  0
 14 15  2  0
 15 16  1  0
 16 17  2  0
 17 18  1  0
 11  4  1  0
 17 12  1  0
M  END
>  <inchikey>  (669) 
AQSRYRAKACNKKC-UHFFFAOYSA-N

>  <tags>  (669) 
fragmenstein_placed,CpKRS_FrAncestor_bulkdock_iter2

>  <ref_pdb>  (669) 
x0485c

>  <energy_score>  (669) 
-3.17085

>  <distance_score>  (669) 
0.323989

>  <HIPPO Pose ID>  (669) 
56041

>  <ref_mols>  (669) 
x0485a

>  <smiles>  (669) 
O=C(Nc1cc(F)cc(F)c1)c1ccncc1Cl

>  <HIPPO Compound ID>  (669) 
34268

>  <alias>  (669) 
AQSRYRAKACNKKC-UHFFFAOYSA-N-P30

>  <subsites>  (669) 


>  <placement_batch>  (669) 
CpKRS_FrAncestor_bulkdock_iter2

>  <name>  (669) 
AQSRYRAKACNKKC-UHFFFAOYSA-N-P30

$$$$
WLVQQFJUUMDNJE-UHFFFAOYSA-N-P30
     RDKit          3D

 18 19  0  0  0  0  0  0  0  0999 V2000
    5.2254  -13.6193   24.3836 O   0  0  0  0  0  0  0  0  0  0  0  0
    4.5209  -12.9809   25.0564 C   0  0  0  0  0  0  0  0  0  0  0  0
    4.2183  -11.4664   25.0350 N   0  0  0  0  0  0  0  0  0  0  0  0
    4.6322  -10.4763   24.1530 C   0  0  0  0  0  0  0  0  0  0  0  0
    4.8075   -9.1742   24.6254 C   0  0  0  0  0  0  0  0  0  0  0  0
    5.2684   -8.1904   23.7559 C   0  0  0  0  0  0  0  0  0  0  0  0
    5.5115   -6.9599   24.2219 F   0  0  0  0  0  0  0  0  0  0  0  0
    5.4412   -8.4486   22.4059 C   0  0  0  0  0  0  0  0  0  0  0  0
    5.2030   -9.7306   21.9372 C   0  0  0  0  0  0  0  0  0  0  0  0
    5.2551   -9.9577   20.6227 F   0  0  0  0  0  0  0  0  0  0  0  0
    4.8423  -10.7547   22.8005 C   0  0  0  0  0  0  0  0  0  0  0  0
    4.5663  -11.9606   22.2883 F   0  0  0  0  0  0  0  0  0  0  0  0
    3.7197  -13.6858   26.0985 C   0  0  0  0  0  0  0  0  0  0  0  0
    4.2860  -14.7760   26.7561 C   0  0  0  0  0  0  0  0  0  0  0  0
    3.5211  -15.4306   27.7033 C   0  0  0  0  0  0  0  0  0  0  0  0
    2.2575  -15.0768   28.0310 N   0  0  0  0  0  0  0  0  0  0  0  0
    1.7300  -14.0452   27.3408 C   0  0  0  0  0  0  0  0  0  0  0  0
    2.4026  -13.3251   26.3726 C   0  0  0  0  0  0  0  0  0  0  0  0
  1  2  2  0
  2  3  1  0
  3  4  1  0
  4  5  2  0
  5  6  1  0
  6  7  1  0
  6  8  2  0
  8  9  1  0
  9 10  1  0
  9 11  2  0
 11 12  1  0
  2 13  1  0
 13 14  2  0
 14 15  1  0
 15 16  2  0
 16 17  1  0
 17 18  2  0
 11  4  1  0
 18 13  1  0
M  END
>  <inchikey>  (670) 
WLVQQFJUUMDNJE-UHFFFAOYSA-N

>  <tags>  (670) 
fragmenstein_placed,CpKRS_FrAncestor_bulkdock_iter2

>  <ref_pdb>  (670) 
x0485c

>  <energy_score>  (670) 
-2.581367

>  <distance_score>  (670) 
0.230258

>  <HIPPO Pose ID>  (670) 
56047

>  <ref_mols>  (670) 
x0485a

>  <smiles>  (670) 
O=C(Nc1cc(F)cc(F)c1F)c1ccncc1

>  <HIPPO Compound ID>  (670) 
34270

>  <alias>  (670) 
WLVQQFJUUMDNJE-UHFFFAOYSA-N-P30

>  <subsites>  (670) 


>  <placement_batch>  (670) 
CpKRS_FrAncestor_bulkdock_iter2

>  <name>  (670) 
WLVQQFJUUMDNJE-UHFFFAOYSA-N-P30

$$$$
HDZGLMYLPLKLCY-UHFFFAOYSA-N-P30
     RDKit          3D

 18 19  0  0  0  0  0  0  0  0999 V2000
    4.5392  -13.4094   24.4710 O   0  0  0  0  0  0  0  0  0  0  0  0
    3.9157  -12.8994   25.3159 C   0  0  0  0  0  0  0  0  0  0  0  0
    3.6233  -11.3976   25.5839 N   0  0  0  0  0  0  0  0  0  0  0  0
    4.0967  -10.2646   24.9495 C   0  0  0  0  0  0  0  0  0  0  0  0
    4.1680   -8.9906   25.5123 C   0  0  0  0  0  0  0  0  0  0  0  0
    4.9009   -7.9958   24.8658 C   0  0  0  0  0  0  0  0  0  0  0  0
    5.1241   -6.8168   25.4510 F   0  0  0  0  0  0  0  0  0  0  0  0
    5.3651   -8.1772   23.5899 C   0  0  0  0  0  0  0  0  0  0  0  0
    5.1064   -9.3933   23.0067 C   0  0  0  0  0  0  0  0  0  0  0  0
    5.1636   -9.6216   21.0676 I   0  0  0  0  0  0  0  0  0  0  0  0
    4.5851  -10.4645   23.6877 C   0  0  0  0  0  0  0  0  0  0  0  0
    3.3378  -13.7720   26.3536 C   0  0  0  0  0  0  0  0  0  0  0  0
    4.1842  -14.7277   26.9234 C   0  0  0  0  0  0  0  0  0  0  0  0
    3.7025  -15.4791   27.9758 C   0  0  0  0  0  0  0  0  0  0  0  0
    2.4738  -15.3133   28.5062 N   0  0  0  0  0  0  0  0  0  0  0  0
    1.6753  -14.4131   27.8897 C   0  0  0  0  0  0  0  0  0  0  0  0
    2.0264  -13.6676   26.7808 C   0  0  0  0  0  0  0  0  0  0  0  0
    0.6951  -12.6793   25.8745 Br  0  0  0  0  0  0  0  0  0  0  0  0
  1  2  2  0
  2  3  1  0
  3  4  1  0
  4  5  2  0
  5  6  1  0
  6  7  1  0
  6  8  2  0
  8  9  1  0
  9 10  1  0
  9 11  2  0
  2 12  1  0
 12 13  2  0
 13 14  1  0
 14 15  2  0
 15 16  1  0
 16 17  2  0
 17 18  1  0
 11  4  1  0
 17 12  1  0
M  END
>  <inchikey>  (671) 
HDZGLMYLPLKLCY-UHFFFAOYSA-N

>  <tags>  (671) 
fragmenstein_placed,CpKRS_FrAncestor_bulkdock_iter2

>  <ref_pdb>  (671) 
x0485c

>  <energy_score>  (671) 
-0.025434

>  <distance_score>  (671) 
0.953547

>  <HIPPO Pose ID>  (671) 
56050

>  <ref_mols>  (671) 
x0485a

>  <smiles>  (671) 
O=C(Nc1cc(F)cc(I)c1)c1ccncc1Br

>  <HIPPO Compound ID>  (671) 
34271

>  <alias>  (671) 
HDZGLMYLPLKLCY-UHFFFAOYSA-N-P30

>  <subsites>  (671) 


>  <placement_batch>  (671) 
CpKRS_FrAncestor_bulkdock_iter2

>  <name>  (671) 
HDZGLMYLPLKLCY-UHFFFAOYSA-N-P30

$$$$
BODSMFSBBMAZMI-UHFFFAOYSA-N-P29
     RDKit          3D

 18 19  0  0  0  0  0  0  0  0999 V2000
    3.6864    6.0829   41.3971 O   0  0  0  0  0  0  0  0  0  0  0  0
    3.3124    6.7944   42.2449 C   0  0  0  0  0  0  0  0  0  0  0  0
    2.9942    6.5025   43.7322 N   0  0  0  0  0  0  0  0  0  0  0  0
    3.1556    5.3349   44.4824 C   0  0  0  0  0  0  0  0  0  0  0  0
    3.7549    4.2147   43.9001 C   0  0  0  0  0  0  0  0  0  0  0  0
    4.0620    3.1164   44.6920 C   0  0  0  0  0  0  0  0  0  0  0  0
    4.7122    2.0720   44.1613 F   0  0  0  0  0  0  0  0  0  0  0  0
    3.7272    3.0996   46.0380 C   0  0  0  0  0  0  0  0  0  0  0  0
    4.0561    2.0369   46.7808 F   0  0  0  0  0  0  0  0  0  0  0  0
    3.0514    4.1602   46.6157 C   0  0  0  0  0  0  0  0  0  0  0  0
    2.7740    5.2824   45.8353 C   0  0  0  0  0  0  0  0  0  0  0  0
    1.8333    6.6935   46.6626 Br  0  0  0  0  0  0  0  0  0  0  0  0
    3.0977    8.2256   41.8819 C   0  0  0  0  0  0  0  0  0  0  0  0
    3.9422    8.7902   40.9220 C   0  0  0  0  0  0  0  0  0  0  0  0
    3.7007   10.0912   40.5240 C   0  0  0  0  0  0  0  0  0  0  0  0
    2.6949   10.8442   41.0151 N   0  0  0  0  0  0  0  0  0  0  0  0
    1.9014   10.2775   41.9506 C   0  0  0  0  0  0  0  0  0  0  0  0
    2.0535    8.9808   42.4066 C   0  0  0  0  0  0  0  0  0  0  0  0
  1  2  2  0
  2  3  1  0
  3  4  1  0
  4  5  2  0
  5  6  1  0
  6  7  1  0
  6  8  2  0
  8  9  1  0
  8 10  1  0
 10 11  2  0
 11 12  1  0
  2 13  1  0
 13 14  2  0
 14 15  1  0
 15 16  2  0
 16 17  1  0
 17 18  2  0
 11  4  1  0
 18 13  1  0
M  END
>  <inchikey>  (672) 
BODSMFSBBMAZMI-UHFFFAOYSA-N

>  <tags>  (672) 
fragmenstein_placed,CpKRS_FrAncestor_bulkdock_iter2

>  <ref_pdb>  (672) 
x0485c

>  <energy_score>  (672) 
-11.830237

>  <distance_score>  (672) 
0.402047

>  <HIPPO Pose ID>  (672) 
56067

>  <ref_mols>  (672) 
x0485c

>  <smiles>  (672) 
O=C(Nc1cc(F)c(F)cc1Br)c1ccncc1

>  <HIPPO Compound ID>  (672) 
34276

>  <alias>  (672) 
BODSMFSBBMAZMI-UHFFFAOYSA-N-P29

>  <subsites>  (672) 


>  <placement_batch>  (672) 
CpKRS_FrAncestor_bulkdock_iter2

>  <name>  (672) 
BODSMFSBBMAZMI-UHFFFAOYSA-N-P29

$$$$
UZFKFWKYMWTLKW-UHFFFAOYSA-N-P30
     RDKit          3D

 18 19  0  0  0  0  0  0  0  0999 V2000
    5.2787  -13.6679   24.4258 O   0  0  0  0  0  0  0  0  0  0  0  0
    4.5509  -13.0339   25.0776 C   0  0  0  0  0  0  0  0  0  0  0  0
    4.2332  -11.5229   25.0416 N   0  0  0  0  0  0  0  0  0  0  0  0
    4.6589  -10.5327   24.1662 C   0  0  0  0  0  0  0  0  0  0  0  0
    4.7616   -9.2246   24.6412 C   0  0  0  0  0  0  0  0  0  0  0  0
    5.2101   -8.2293   23.7847 C   0  0  0  0  0  0  0  0  0  0  0  0
    5.3832   -6.9867   24.2517 F   0  0  0  0  0  0  0  0  0  0  0  0
    5.4407   -8.5024   22.4438 C   0  0  0  0  0  0  0  0  0  0  0  0
    5.7134   -7.4978   21.6054 F   0  0  0  0  0  0  0  0  0  0  0  0
    5.3192   -9.7913   21.9542 C   0  0  0  0  0  0  0  0  0  0  0  0
    4.9546  -10.8096   22.8248 C   0  0  0  0  0  0  0  0  0  0  0  0
    4.7673  -12.0311   22.3118 F   0  0  0  0  0  0  0  0  0  0  0  0
    3.7388  -13.7358   26.1145 C   0  0  0  0  0  0  0  0  0  0  0  0
    4.3032  -14.8168   26.7881 C   0  0  0  0  0  0  0  0  0  0  0  0
    3.5346  -15.4594   27.7403 C   0  0  0  0  0  0  0  0  0  0  0  0
    2.2695  -15.1023   28.0588 N   0  0  0  0  0  0  0  0  0  0  0  0
    1.7438  -14.0801   27.3539 C   0  0  0  0  0  0  0  0  0  0  0  0
    2.4194  -13.3739   26.3778 C   0  0  0  0  0  0  0  0  0  0  0  0
  1  2  2  0
  2  3  1  0
  3  4  1  0
  4  5  2  0
  5  6  1  0
  6  7  1  0
  6  8  2  0
  8  9  1  0
  8 10  1  0
 10 11  2  0
 11 12  1  0
  2 13  1  0
 13 14  2  0
 14 15  1  0
 15 16  2  0
 16 17  1  0
 17 18  2  0
 11  4  1  0
 18 13  1  0
M  END
>  <inchikey>  (673) 
UZFKFWKYMWTLKW-UHFFFAOYSA-N

>  <tags>  (673) 
fragmenstein_placed,CpKRS_FrAncestor_bulkdock_iter2

>  <ref_pdb>  (673) 
x0485c

>  <energy_score>  (673) 
-3.768014

>  <distance_score>  (673) 
0.246353

>  <HIPPO Pose ID>  (673) 
56068

>  <ref_mols>  (673) 
x0485a

>  <smiles>  (673) 
O=C(Nc1cc(F)c(F)cc1F)c1ccncc1

>  <HIPPO Compound ID>  (673) 
34277

>  <alias>  (673) 
UZFKFWKYMWTLKW-UHFFFAOYSA-N-P30

>  <subsites>  (673) 


>  <placement_batch>  (673) 
CpKRS_FrAncestor_bulkdock_iter2

>  <name>  (673) 
UZFKFWKYMWTLKW-UHFFFAOYSA-N-P30

$$$$
JYHRUZIZQVZFIJ-UHFFFAOYSA-N-P30
     RDKit          3D

 18 19  0  0  0  0  0  0  0  0999 V2000
    5.2156  -13.8563   24.5183 O   0  0  0  0  0  0  0  0  0  0  0  0
    4.4326  -13.2313   25.1100 C   0  0  0  0  0  0  0  0  0  0  0  0
    4.0653  -11.7417   25.0098 N   0  0  0  0  0  0  0  0  0  0  0  0
    4.4995  -10.7664   24.1304 C   0  0  0  0  0  0  0  0  0  0  0  0
    4.6684   -9.4845   24.6345 C   0  0  0  0  0  0  0  0  0  0  0  0
    5.2858   -8.5246   23.8438 C   0  0  0  0  0  0  0  0  0  0  0  0
    5.9651   -6.8277   24.7691 I   0  0  0  0  0  0  0  0  0  0  0  0
    5.5465   -8.7639   22.4982 C   0  0  0  0  0  0  0  0  0  0  0  0
    5.2882  -10.0249   21.9712 C   0  0  0  0  0  0  0  0  0  0  0  0
    4.8170  -11.0362   22.7999 C   0  0  0  0  0  0  0  0  0  0  0  0
    4.5924  -12.2402   22.2638 F   0  0  0  0  0  0  0  0  0  0  0  0
    3.6638  -13.9168   26.1937 C   0  0  0  0  0  0  0  0  0  0  0  0
    4.3553  -14.9086   26.9012 C   0  0  0  0  0  0  0  0  0  0  0  0
    3.7198  -15.5490   27.9488 C   0  0  0  0  0  0  0  0  0  0  0  0
    2.4654  -15.2646   28.3508 N   0  0  0  0  0  0  0  0  0  0  0  0
    1.8125  -14.3313   27.6247 C   0  0  0  0  0  0  0  0  0  0  0  0
    2.3376  -13.6541   26.5333 C   0  0  0  0  0  0  0  0  0  0  0  0
    1.1521  -12.5201   25.5862 Br  0  0  0  0  0  0  0  0  0  0  0  0
  1  2  2  0
  2  3  1  0
  3  4  1  0
  4  5  2  0
  5  6  1  0
  6  7  1  0
  6  8  2  0
  8  9  1  0
  9 10  2  0
 10 11  1  0
  2 12  1  0
 12 13  2  0
 13 14  1  0
 14 15  2  0
 15 16  1  0
 16 17  2  0
 17 18  1  0
 10  4  1  0
 17 12  1  0
M  END
>  <inchikey>  (674) 
JYHRUZIZQVZFIJ-UHFFFAOYSA-N

>  <tags>  (674) 
fragmenstein_placed,CpKRS_FrAncestor_bulkdock_iter2

>  <ref_pdb>  (674) 
x0485c

>  <energy_score>  (674) 
-7.688535

>  <distance_score>  (674) 
0.404519

>  <HIPPO Pose ID>  (674) 
56077

>  <ref_mols>  (674) 
x0485a

>  <smiles>  (674) 
O=C(Nc1cc(I)ccc1F)c1ccncc1Br

>  <HIPPO Compound ID>  (674) 
34280

>  <alias>  (674) 
JYHRUZIZQVZFIJ-UHFFFAOYSA-N-P30

>  <subsites>  (674) 


>  <placement_batch>  (674) 
CpKRS_FrAncestor_bulkdock_iter2

>  <name>  (674) 
JYHRUZIZQVZFIJ-UHFFFAOYSA-N-P30

$$$$
GJGYGDWIZNRXGK-UHFFFAOYSA-N-P30
     RDKit          3D

 18 19  0  0  0  0  0  0  0  0999 V2000
    5.2317  -13.8517   24.5478 O   0  0  0  0  0  0  0  0  0  0  0  0
    4.4312  -13.2326   25.1231 C   0  0  0  0  0  0  0  0  0  0  0  0
    4.0444  -11.7482   25.0051 N   0  0  0  0  0  0  0  0  0  0  0  0
    4.4778  -10.7741   24.1241 C   0  0  0  0  0  0  0  0  0  0  0  0
    4.6482   -9.4916   24.6273 C   0  0  0  0  0  0  0  0  0  0  0  0
    5.2743   -8.5355   23.8385 C   0  0  0  0  0  0  0  0  0  0  0  0
    5.9606   -6.8406   24.7638 I   0  0  0  0  0  0  0  0  0  0  0  0
    5.5414   -8.7780   22.4946 C   0  0  0  0  0  0  0  0  0  0  0  0
    5.2817  -10.0392   21.9685 C   0  0  0  0  0  0  0  0  0  0  0  0
    4.8035  -11.0477   22.7966 C   0  0  0  0  0  0  0  0  0  0  0  0
    4.5830  -12.2538   22.2635 F   0  0  0  0  0  0  0  0  0  0  0  0
    3.6700  -13.9232   26.2102 C   0  0  0  0  0  0  0  0  0  0  0  0
    4.3537  -14.9390   26.8921 C   0  0  0  0  0  0  0  0  0  0  0  0
    3.7215  -15.5879   27.9368 C   0  0  0  0  0  0  0  0  0  0  0  0
    2.4755  -15.2942   28.3578 N   0  0  0  0  0  0  0  0  0  0  0  0
    1.8307  -14.3351   27.6581 C   0  0  0  0  0  0  0  0  0  0  0  0
    2.3559  -13.6412   26.5770 C   0  0  0  0  0  0  0  0  0  0  0  0
    1.3074  -12.5333   25.7756 Cl  0  0  0  0  0  0  0  0  0  0  0  0
  1  2  2  0
  2  3  1  0
  3  4  1  0
  4  5  2  0
  5  6  1  0
  6  7  1  0
  6  8  2  0
  8  9  1  0
  9 10  2  0
 10 11  1  0
  2 12  1  0
 12 13  2  0
 13 14  1  0
 14 15  2  0
 15 16  1  0
 16 17  2  0
 17 18  1  0
 10  4  1  0
 17 12  1  0
M  END
>  <inchikey>  (675) 
GJGYGDWIZNRXGK-UHFFFAOYSA-N

>  <tags>  (675) 
fragmenstein_placed,CpKRS_FrAncestor_bulkdock_iter2

>  <ref_pdb>  (675) 
x0485c

>  <energy_score>  (675) 
-13.243805

>  <distance_score>  (675) 
0.413997

>  <HIPPO Pose ID>  (675) 
56080

>  <ref_mols>  (675) 
x0485a

>  <smiles>  (675) 
O=C(Nc1cc(I)ccc1F)c1ccncc1Cl

>  <HIPPO Compound ID>  (675) 
34281

>  <alias>  (675) 
GJGYGDWIZNRXGK-UHFFFAOYSA-N-P30

>  <subsites>  (675) 


>  <placement_batch>  (675) 
CpKRS_FrAncestor_bulkdock_iter2

>  <name>  (675) 
GJGYGDWIZNRXGK-UHFFFAOYSA-N-P30

$$$$
QJAQIUHYTMJYKR-UHFFFAOYSA-N-P30
     RDKit          3D

 18 19  0  0  0  0  0  0  0  0999 V2000
    5.2605  -13.6714   24.4088 O   0  0  0  0  0  0  0  0  0  0  0  0
    4.5529  -13.0159   25.0612 C   0  0  0  0  0  0  0  0  0  0  0  0
    4.2563  -11.5023   25.0037 N   0  0  0  0  0  0  0  0  0  0  0  0
    4.6818  -10.5318   24.1022 C   0  0  0  0  0  0  0  0  0  0  0  0
    4.9645  -10.8357   22.7703 C   0  0  0  0  0  0  0  0  0  0  0  0
    4.7586  -12.0625   22.2784 F   0  0  0  0  0  0  0  0  0  0  0  0
    5.3495   -9.8379   21.8787 C   0  0  0  0  0  0  0  0  0  0  0  0
    5.5127   -8.5302   22.3222 C   0  0  0  0  0  0  0  0  0  0  0  0
    5.2717   -8.2319   23.6559 C   0  0  0  0  0  0  0  0  0  0  0  0
    5.4659   -6.9801   24.0898 F   0  0  0  0  0  0  0  0  0  0  0  0
    4.8076   -9.2104   24.5264 C   0  0  0  0  0  0  0  0  0  0  0  0
    4.5057   -8.8773   25.7895 F   0  0  0  0  0  0  0  0  0  0  0  0
    3.7368  -13.6994   26.1064 C   0  0  0  0  0  0  0  0  0  0  0  0
    4.2870  -14.7909   26.7761 C   0  0  0  0  0  0  0  0  0  0  0  0
    3.5079  -15.4333   27.7199 C   0  0  0  0  0  0  0  0  0  0  0  0
    2.2439  -15.0682   28.0326 N   0  0  0  0  0  0  0  0  0  0  0  0
    1.7331  -14.0340   27.3334 C   0  0  0  0  0  0  0  0  0  0  0  0
    2.4212  -13.3245   26.3681 C   0  0  0  0  0  0  0  0  0  0  0  0
  1  2  2  0
  2  3  1  0
  3  4  1  0
  4  5  2  0
  5  6  1  0
  5  7  1  0
  7  8  2  0
  8  9  1  0
  9 10  1  0
  9 11  2  0
 11 12  1  0
  2 13  1  0
 13 14  2  0
 14 15  1  0
 15 16  2  0
 16 17  1  0
 17 18  2  0
 11  4  1  0
 18 13  1  0
M  END
>  <inchikey>  (676) 
QJAQIUHYTMJYKR-UHFFFAOYSA-N

>  <tags>  (676) 
fragmenstein_placed,CpKRS_FrAncestor_bulkdock_iter2

>  <ref_pdb>  (676) 
x0485c

>  <energy_score>  (676) 
-7.199889

>  <distance_score>  (676) 
0.239823

>  <HIPPO Pose ID>  (676) 
56086

>  <ref_mols>  (676) 
x0485a

>  <smiles>  (676) 
O=C(Nc1c(F)ccc(F)c1F)c1ccncc1

>  <HIPPO Compound ID>  (676) 
34283

>  <alias>  (676) 
QJAQIUHYTMJYKR-UHFFFAOYSA-N-P30

>  <subsites>  (676) 


>  <placement_batch>  (676) 
CpKRS_FrAncestor_bulkdock_iter2

>  <name>  (676) 
QJAQIUHYTMJYKR-UHFFFAOYSA-N-P30

$$$$
WGZDTVWJQCBTFH-UHFFFAOYSA-N-P30
     RDKit          3D

 19 20  0  0  0  0  0  0  0  0999 V2000
    5.2245  -13.6436   24.3728 O   0  0  0  0  0  0  0  0  0  0  0  0
    4.5408  -12.9903   25.0518 C   0  0  0  0  0  0  0  0  0  0  0  0
    4.2586  -11.4738   25.0224 N   0  0  0  0  0  0  0  0  0  0  0  0
    4.6709  -10.4954   24.1235 C   0  0  0  0  0  0  0  0  0  0  0  0
    4.8619  -10.7845   22.7732 C   0  0  0  0  0  0  0  0  0  0  0  0
    4.5767  -11.9939   22.2754 F   0  0  0  0  0  0  0  0  0  0  0  0
    5.2057   -9.7680   21.8910 C   0  0  0  0  0  0  0  0  0  0  0  0
    5.2252  -10.0108   20.5791 F   0  0  0  0  0  0  0  0  0  0  0  0
    5.4517   -8.4781   22.3365 C   0  0  0  0  0  0  0  0  0  0  0  0
    5.3000   -8.2012   23.6846 C   0  0  0  0  0  0  0  0  0  0  0  0
    5.5383   -6.9603   24.1271 F   0  0  0  0  0  0  0  0  0  0  0  0
    4.8559   -9.1841   24.5623 C   0  0  0  0  0  0  0  0  0  0  0  0
    4.6247   -8.8617   25.8420 F   0  0  0  0  0  0  0  0  0  0  0  0
    3.7361  -13.6812   26.1003 C   0  0  0  0  0  0  0  0  0  0  0  0
    4.2907  -14.7786   26.7563 C   0  0  0  0  0  0  0  0  0  0  0  0
    3.5173  -15.4294   27.6992 C   0  0  0  0  0  0  0  0  0  0  0  0
    2.2552  -15.0669   28.0230 N   0  0  0  0  0  0  0  0  0  0  0  0
    1.7397  -14.0270   27.3360 C   0  0  0  0  0  0  0  0  0  0  0  0
    2.4222  -13.3082   26.3735 C   0  0  0  0  0  0  0  0  0  0  0  0
  1  2  2  0
  2  3  1  0
  3  4  1  0
  4  5  2  0
  5  6  1  0
  5  7  1  0
  7  8  1  0
  7  9  2  0
  9 10  1  0
 10 11  1  0
 10 12  2  0
 12 13  1  0
  2 14  1  0
 14 15  2  0
 15 16  1  0
 16 17  2  0
 17 18  1  0
 18 19  2  0
 12  4  1  0
 19 14  1  0
M  END
>  <inchikey>  (677) 
WGZDTVWJQCBTFH-UHFFFAOYSA-N

>  <tags>  (677) 
fragmenstein_placed,CpKRS_FrAncestor_bulkdock_iter2

>  <ref_pdb>  (677) 
x0485c

>  <energy_score>  (677) 
-5.940897

>  <distance_score>  (677) 
0.230983

>  <HIPPO Pose ID>  (677) 
56089

>  <ref_mols>  (677) 
x0485a

>  <smiles>  (677) 
O=C(Nc1c(F)c(F)cc(F)c1F)c1ccncc1

>  <HIPPO Compound ID>  (677) 
34284

>  <alias>  (677) 
WGZDTVWJQCBTFH-UHFFFAOYSA-N-P30

>  <subsites>  (677) 


>  <placement_batch>  (677) 
CpKRS_FrAncestor_bulkdock_iter2

>  <name>  (677) 
WGZDTVWJQCBTFH-UHFFFAOYSA-N-P30

$$$$
ZSXBIKJEWSUDIC-UHFFFAOYSA-N-P20
     RDKit          3D

 15 16  0  0  0  0  0  0  0  0999 V2000
    3.2635    4.5740   42.7180 O   0  0  0  0  0  0  0  0  0  0  0  0
    3.4010    5.7206   42.8673 C   0  0  0  0  0  0  0  0  0  0  0  0
    2.9619    6.6344   44.0217 N   0  0  0  0  0  0  0  0  0  0  0  0
    2.3496    6.3203   45.2701 C   0  0  0  0  0  0  0  0  0  0  0  0
    3.3010    5.4653   46.0442 C   0  0  2  0  0  0  0  0  0  0  0  0
    3.3894    3.9866   45.7370 C   0  0  0  0  0  0  0  0  0  0  0  0
    2.8171    4.4470   47.0286 C   0  0  2  0  0  0  0  0  0  0  0  0
    1.1621    4.3467   47.3984 Cl  0  0  0  0  0  0  0  0  0  0  0  0
    4.1481    6.5302   41.8545 C   0  0  0  0  0  0  0  0  0  0  0  0
    4.7836    5.9014   40.8063 C   0  0  0  0  0  0  0  0  0  0  0  0
    5.4381    6.7195   39.9083 C   0  0  0  0  0  0  0  0  0  0  0  0
    6.1581    6.0514   38.5278 Cl  0  0  0  0  0  0  0  0  0  0  0  0
    5.4871    8.0939   40.0769 C   0  0  0  0  0  0  0  0  0  0  0  0
    4.8564    8.6221   41.1774 C   0  0  0  0  0  0  0  0  0  0  0  0
    4.2117    7.8722   42.0918 N   0  0  0  0  0  0  0  0  0  0  0  0
  1  2  2  0
  2  3  1  0
  3  4  1  0
  5  4  1  6
  5  6  1  0
  6  7  1  0
  7  8  1  6
  2  9  1  0
  9 10  2  0
 10 11  1  0
 11 12  1  0
 11 13  2  0
 13 14  1  0
 14 15  2  0
  7  5  1  0
 15  9  1  0
M  END
>  <inchikey>  (678) 
ZSXBIKJEWSUDIC-UHFFFAOYSA-N

>  <tags>  (678) 
fragmenstein_placed,CpKRS_FrAncestor_bulkdock_iter2

>  <ref_pdb>  (678) 
x0485c

>  <energy_score>  (678) 
-5.917414

>  <distance_score>  (678) 
0.819183

>  <HIPPO Pose ID>  (678) 
56095

>  <ref_mols>  (678) 
x0456a

>  <smiles>  (678) 
O=C(NCC1CC1Cl)c1cc(Cl)ccn1

>  <HIPPO Compound ID>  (678) 
34288

>  <alias>  (678) 
ZSXBIKJEWSUDIC-UHFFFAOYSA-N-P20

>  <subsites>  (678) 


>  <placement_batch>  (678) 
CpKRS_FrAncestor_bulkdock_iter2

>  <name>  (678) 
ZSXBIKJEWSUDIC-UHFFFAOYSA-N-P20

$$$$
DGSVPJBHXIAVSN-UHFFFAOYSA-N-P20
     RDKit          3D

 16 17  0  0  0  0  0  0  0  0999 V2000
    2.6997    4.8028   42.9445 O   0  0  0  0  0  0  0  0  0  0  0  0
    3.0178    5.9141   43.0917 C   0  0  0  0  0  0  0  0  0  0  0  0
    2.7803    6.8731   44.2762 N   0  0  0  0  0  0  0  0  0  0  0  0
    2.0237    6.6954   45.4814 C   0  0  0  0  0  0  0  0  0  0  0  0
    2.7271    5.6950   46.3363 C   0  0  1  0  0  0  0  0  0  0  0  0
    1.9687    4.7358   47.2258 C   0  0  0  0  0  0  0  0  0  0  0  0
    2.5914    4.2562   45.9576 C   0  0  2  0  0  0  0  0  0  0  0  0
    3.9581    3.2112   45.9869 Cl  0  0  0  0  0  0  0  0  0  0  0  0
    3.8534    6.6038   42.0425 C   0  0  0  0  0  0  0  0  0  0  0  0
    3.7207    7.9640   42.0397 N   0  0  0  0  0  0  0  0  0  0  0  0
    4.3644    8.6504   41.0784 C   0  0  0  0  0  0  0  0  0  0  0  0
    5.1592    8.0526   40.1289 C   0  0  0  0  0  0  0  0  0  0  0  0
    5.3318    6.6746   40.1956 C   0  0  0  0  0  0  0  0  0  0  0  0
    6.3408    5.9809   38.9995 Cl  0  0  0  0  0  0  0  0  0  0  0  0
    4.7128    5.9196   41.1908 C   0  0  0  0  0  0  0  0  0  0  0  0
    5.1824    4.2871   41.4602 Cl  0  0  0  0  0  0  0  0  0  0  0  0
  1  2  2  0
  2  3  1  0
  3  4  1  0
  5  4  1  6
  5  6  1  0
  6  7  1  0
  7  8  1  1
  2  9  1  0
  9 10  2  0
 10 11  1  0
 11 12  2  0
 12 13  1  0
 13 14  1  0
 13 15  2  0
 15 16  1  0
  7  5  1  0
 15  9  1  0
M  END
>  <inchikey>  (679) 
DGSVPJBHXIAVSN-UHFFFAOYSA-N

>  <tags>  (679) 
fragmenstein_placed,CpKRS_FrAncestor_bulkdock_iter2

>  <ref_pdb>  (679) 
x0485c

>  <energy_score>  (679) 
-0.15289

>  <distance_score>  (679) 
0.98186

>  <HIPPO Pose ID>  (679) 
56096

>  <ref_mols>  (679) 
x0456a

>  <smiles>  (679) 
O=C(NCC1CC1Cl)c1nccc(Cl)c1Cl

>  <HIPPO Compound ID>  (679) 
34289

>  <alias>  (679) 
DGSVPJBHXIAVSN-UHFFFAOYSA-N-P20

>  <subsites>  (679) 


>  <placement_batch>  (679) 
CpKRS_FrAncestor_bulkdock_iter2

>  <name>  (679) 
DGSVPJBHXIAVSN-UHFFFAOYSA-N-P20

$$$$
WPVKBPKPJZKLQN-UHFFFAOYSA-N-P44
     RDKit          3D

 15 16  0  0  0  0  0  0  0  0999 V2000
  -11.7082  -12.0018   45.8137 O   0  0  0  0  0  0  0  0  0  0  0  0
  -11.1360  -12.8950   46.2973 C   0  0  0  0  0  0  0  0  0  0  0  0
  -11.4807  -14.3981   46.3378 N   0  0  0  0  0  0  0  0  0  0  0  0
  -12.5533  -15.1305   45.7104 C   0  0  0  0  0  0  0  0  0  0  0  0
  -12.3511  -15.2766   44.1958 C   0  0  0  0  0  0  0  0  0  0  0  0
  -13.6528  -15.6277   43.4730 C   0  0  0  0  0  0  0  0  0  0  0  0
  -13.7952  -17.1267   43.6750 C   0  0  0  0  0  0  0  0  0  0  0  0
  -12.3703  -17.6597   43.6160 C   0  0  0  0  0  0  0  0  0  0  0  0
  -11.4475  -16.4632   43.8507 C   0  0  0  0  0  0  0  0  0  0  0  0
   -9.9310  -12.6320   47.0871 C   0  0  0  0  0  0  0  0  0  0  0  0
   -9.3857  -13.2919   48.1749 C   0  0  0  0  0  0  0  0  0  0  0  0
   -8.2722  -12.7038   48.7491 N   0  0  0  0  0  0  0  0  0  0  0  0
   -7.9728  -11.6208   48.0742 C   0  0  0  0  0  0  0  0  0  0  0  0
   -6.4901  -10.5118   48.5799 Br  0  0  0  0  0  0  0  0  0  0  0  0
   -8.9776  -11.2338   46.7555 S   0  0  0  0  0  0  0  0  0  0  0  0
  1  2  2  0
  2  3  1  0
  3  4  1  0
  4  5  1  0
  5  6  1  0
  6  7  1  0
  7  8  1  0
  8  9  1  0
  2 10  1  0
 10 11  2  0
 11 12  1  0
 12 13  2  0
 13 14  1  0
 13 15  1  0
  9  5  1  0
 15 10  1  0
M  END
>  <inchikey>  (680) 
WPVKBPKPJZKLQN-UHFFFAOYSA-N

>  <tags>  (680) 
fragmenstein_placed,CpKRS_FrAncestor_bulkdock_iter2

>  <ref_pdb>  (680) 
x0485c

>  <energy_score>  (680) 
-61.06503

>  <distance_score>  (680) 
0.334791

>  <HIPPO Pose ID>  (680) 
56103

>  <ref_mols>  (680) 
x0502b

>  <smiles>  (680) 
O=C(NCC1CCCC1)c1cnc(Br)s1

>  <HIPPO Compound ID>  (680) 
34292

>  <alias>  (680) 
WPVKBPKPJZKLQN-UHFFFAOYSA-N-P44

>  <subsites>  (680) 


>  <placement_batch>  (680) 
CpKRS_FrAncestor_bulkdock_iter2

>  <name>  (680) 
WPVKBPKPJZKLQN-UHFFFAOYSA-N-P44

$$$$
IKWIGEJYFFCTBF-UHFFFAOYSA-N-P44
     RDKit          3D

 15 16  0  0  0  0  0  0  0  0999 V2000
  -11.7530  -12.0450   45.8842 O   0  0  0  0  0  0  0  0  0  0  0  0
  -11.1519  -12.9378   46.3321 C   0  0  0  0  0  0  0  0  0  0  0  0
  -11.4678  -14.4480   46.3472 N   0  0  0  0  0  0  0  0  0  0  0  0
  -12.5425  -15.1861   45.7314 C   0  0  0  0  0  0  0  0  0  0  0  0
  -12.3701  -15.2970   44.2102 C   0  0  0  0  0  0  0  0  0  0  0  0
  -13.6809  -15.6497   43.5053 C   0  0  0  0  0  0  0  0  0  0  0  0
  -13.8037  -17.1537   43.6818 C   0  0  0  0  0  0  0  0  0  0  0  0
  -12.3737  -17.6713   43.6028 C   0  0  0  0  0  0  0  0  0  0  0  0
  -11.4601  -16.4649   43.8216 C   0  0  0  0  0  0  0  0  0  0  0  0
   -9.9373  -12.6630   47.1028 C   0  0  0  0  0  0  0  0  0  0  0  0
   -9.3685  -13.3082   48.1889 C   0  0  0  0  0  0  0  0  0  0  0  0
   -8.2476  -12.7073   48.7371 N   0  0  0  0  0  0  0  0  0  0  0  0
   -7.9736  -11.6368   48.0368 C   0  0  0  0  0  0  0  0  0  0  0  0
   -6.6503  -10.6104   48.4125 Cl  0  0  0  0  0  0  0  0  0  0  0  0
   -8.9969  -11.2604   46.7400 S   0  0  0  0  0  0  0  0  0  0  0  0
  1  2  2  0
  2  3  1  0
  3  4  1  0
  4  5  1  0
  5  6  1  0
  6  7  1  0
  7  8  1  0
  8  9  1  0
  2 10  1  0
 10 11  2  0
 11 12  1  0
 12 13  2  0
 13 14  1  0
 13 15  1  0
  9  5  1  0
 15 10  1  0
M  END
>  <inchikey>  (681) 
IKWIGEJYFFCTBF-UHFFFAOYSA-N

>  <tags>  (681) 
fragmenstein_placed,CpKRS_FrAncestor_bulkdock_iter2

>  <ref_pdb>  (681) 
x0485c

>  <energy_score>  (681) 
-48.291544

>  <distance_score>  (681) 
0.310331

>  <HIPPO Pose ID>  (681) 
56106

>  <ref_mols>  (681) 
x0502b

>  <smiles>  (681) 
O=C(NCC1CCCC1)c1cnc(Cl)s1

>  <HIPPO Compound ID>  (681) 
34293

>  <alias>  (681) 
IKWIGEJYFFCTBF-UHFFFAOYSA-N-P44

>  <subsites>  (681) 


>  <placement_batch>  (681) 
CpKRS_FrAncestor_bulkdock_iter2

>  <name>  (681) 
IKWIGEJYFFCTBF-UHFFFAOYSA-N-P44

$$$$
RLSJWFVAHBSNAC-UHFFFAOYSA-N-P45
     RDKit          3D

 14 15  0  0  0  0  0  0  0  0999 V2000
    5.6969  -13.6601   25.1695 O   0  0  0  0  0  0  0  0  0  0  0  0
    4.5655  -13.4377   25.0029 C   0  0  0  0  0  0  0  0  0  0  0  0
    3.8566  -12.6616   23.8783 N   0  0  0  0  0  0  0  0  0  0  0  0
    4.3961  -11.9168   22.7753 C   0  0  0  0  0  0  0  0  0  0  0  0
    4.2795  -10.4070   22.9522 C   0  0  0  0  0  0  0  0  0  0  0  0
    4.9792   -9.8634   24.2004 C   0  0  0  0  0  0  0  0  0  0  0  0
    5.4628   -8.4563   23.8473 C   0  0  0  0  0  0  0  0  0  0  0  0
    5.0538   -8.2283   22.4000 C   0  0  0  0  0  0  0  0  0  0  0  0
    4.9464   -9.6260   21.8208 C   0  0  0  0  0  0  0  0  0  0  0  0
    3.5943  -13.9594   25.9650 C   0  0  0  0  0  0  0  0  0  0  0  0
    3.8228  -14.9344   26.9209 C   0  0  0  0  0  0  0  0  0  0  0  0
    2.7948  -15.1715   27.8135 N   0  0  0  0  0  0  0  0  0  0  0  0
    1.7922  -14.3843   27.5081 C   0  0  0  0  0  0  0  0  0  0  0  0
    1.9854  -13.3822   26.1313 S   0  0  0  0  0  0  0  0  0  0  0  0
  1  2  2  0
  2  3  1  0
  3  4  1  0
  4  5  1  0
  5  6  1  0
  6  7  1  0
  7  8  1  0
  8  9  1  0
  2 10  1  0
 10 11  2  0
 11 12  1  0
 12 13  2  0
 13 14  1  0
  9  5  1  0
 14 10  1  0
M  END
>  <inchikey>  (682) 
RLSJWFVAHBSNAC-UHFFFAOYSA-N

>  <tags>  (682) 
fragmenstein_placed,CpKRS_FrAncestor_bulkdock_iter2

>  <ref_pdb>  (682) 
x0485c

>  <energy_score>  (682) 
-18.270381

>  <distance_score>  (682) 
0.353774

>  <HIPPO Pose ID>  (682) 
56108

>  <ref_mols>  (682) 
x0502a

>  <smiles>  (682) 
O=C(NCC1CCCC1)c1cncs1

>  <HIPPO Compound ID>  (682) 
34294

>  <alias>  (682) 
RLSJWFVAHBSNAC-UHFFFAOYSA-N-P45

>  <subsites>  (682) 


>  <placement_batch>  (682) 
CpKRS_FrAncestor_bulkdock_iter2

>  <name>  (682) 
RLSJWFVAHBSNAC-UHFFFAOYSA-N-P45

$$$$
YRLWOQJOEAVAII-UHFFFAOYSA-N-P45
     RDKit          3D

 15 16  0  0  0  0  0  0  0  0999 V2000
    5.4214  -13.5800   25.1664 O   0  0  0  0  0  0  0  0  0  0  0  0
    4.3287  -13.2698   24.9150 C   0  0  0  0  0  0  0  0  0  0  0  0
    3.7817  -12.3703   23.7959 N   0  0  0  0  0  0  0  0  0  0  0  0
    4.4504  -11.7416   22.6983 C   0  0  0  0  0  0  0  0  0  0  0  0
    4.3437  -10.2299   22.8263 C   0  0  0  0  0  0  0  0  0  0  0  0
    4.9907   -9.6700   24.1016 C   0  0  0  0  0  0  0  0  0  0  0  0
    5.5185   -8.2838   23.7340 C   0  0  0  0  0  0  0  0  0  0  0  0
    5.1235   -8.0707   22.2804 C   0  0  0  0  0  0  0  0  0  0  0  0
    5.0498   -9.4738   21.7099 C   0  0  0  0  0  0  0  0  0  0  0  0
    3.2247  -13.6686   25.7967 C   0  0  0  0  0  0  0  0  0  0  0  0
    1.6922  -12.8724   25.7696 S   0  0  0  0  0  0  0  0  0  0  0  0
    1.2160  -13.7674   27.1351 C   0  0  0  0  0  0  0  0  0  0  0  0
    2.0507  -14.6692   27.5748 N   0  0  0  0  0  0  0  0  0  0  0  0
    3.2004  -14.6136   26.8067 C   0  0  0  0  0  0  0  0  0  0  0  0
    4.6168  -15.7681   27.2492 Br  0  0  0  0  0  0  0  0  0  0  0  0
  1  2  2  0
  2  3  1  0
  3  4  1  0
  4  5  1  0
  5  6  1  0
  6  7  1  0
  7  8  1  0
  8  9  1  0
  2 10  1  0
 10 11  1  0
 11 12  1  0
 12 13  2  0
 13 14  1  0
 14 15  1  0
  9  5  1  0
 14 10  2  0
M  END
>  <inchikey>  (683) 
YRLWOQJOEAVAII-UHFFFAOYSA-N

>  <tags>  (683) 
fragmenstein_placed,CpKRS_FrAncestor_bulkdock_iter2

>  <ref_pdb>  (683) 
x0485c

>  <energy_score>  (683) 
-31.542409

>  <distance_score>  (683) 
0.428995

>  <HIPPO Pose ID>  (683) 
56111

>  <ref_mols>  (683) 
x0502a

>  <smiles>  (683) 
O=C(NCC1CCCC1)c1scnc1Br

>  <HIPPO Compound ID>  (683) 
34295

>  <alias>  (683) 
YRLWOQJOEAVAII-UHFFFAOYSA-N-P45

>  <subsites>  (683) 


>  <placement_batch>  (683) 
CpKRS_FrAncestor_bulkdock_iter2

>  <name>  (683) 
YRLWOQJOEAVAII-UHFFFAOYSA-N-P45

$$$$
CTSLTHJQDZIAOO-UHFFFAOYSA-N-P45
     RDKit          3D

 15 16  0  0  0  0  0  0  0  0999 V2000
    5.5729  -13.5510   25.1725 O   0  0  0  0  0  0  0  0  0  0  0  0
    4.4600  -13.3268   24.9165 C   0  0  0  0  0  0  0  0  0  0  0  0
    3.8446  -12.5624   23.7325 N   0  0  0  0  0  0  0  0  0  0  0  0
    4.4697  -11.8349   22.6688 C   0  0  0  0  0  0  0  0  0  0  0  0
    4.3297  -10.3305   22.8559 C   0  0  0  0  0  0  0  0  0  0  0  0
    4.9793   -9.7957   24.1374 C   0  0  0  0  0  0  0  0  0  0  0  0
    5.4764   -8.3876   23.8090 C   0  0  0  0  0  0  0  0  0  0  0  0
    5.0834   -8.1400   22.3602 C   0  0  0  0  0  0  0  0  0  0  0  0
    5.0158   -9.5286   21.7548 C   0  0  0  0  0  0  0  0  0  0  0  0
    3.4003  -13.7687   25.8270 C   0  0  0  0  0  0  0  0  0  0  0  0
    1.8370  -13.0417   25.8512 S   0  0  0  0  0  0  0  0  0  0  0  0
    1.4424  -13.9730   27.2222 C   0  0  0  0  0  0  0  0  0  0  0  0
    2.3368  -14.8338   27.6288 N   0  0  0  0  0  0  0  0  0  0  0  0
    3.4652  -14.7251   26.8278 C   0  0  0  0  0  0  0  0  0  0  0  0
    4.8043  -15.7203   27.1789 Cl  0  0  0  0  0  0  0  0  0  0  0  0
  1  2  2  0
  2  3  1  0
  3  4  1  0
  4  5  1  0
  5  6  1  0
  6  7  1  0
  7  8  1  0
  8  9  1  0
  2 10  1  0
 10 11  1  0
 11 12  1  0
 12 13  2  0
 13 14  1  0
 14 15  1  0
  9  5  1  0
 14 10  2  0
M  END
>  <inchikey>  (684) 
CTSLTHJQDZIAOO-UHFFFAOYSA-N

>  <tags>  (684) 
fragmenstein_placed,CpKRS_FrAncestor_bulkdock_iter2

>  <ref_pdb>  (684) 
x0485c

>  <energy_score>  (684) 
-58.00235

>  <distance_score>  (684) 
0.353922

>  <HIPPO Pose ID>  (684) 
56114

>  <ref_mols>  (684) 
x0502a

>  <smiles>  (684) 
O=C(NCC1CCCC1)c1scnc1Cl

>  <HIPPO Compound ID>  (684) 
34296

>  <alias>  (684) 
CTSLTHJQDZIAOO-UHFFFAOYSA-N-P45

>  <subsites>  (684) 


>  <placement_batch>  (684) 
CpKRS_FrAncestor_bulkdock_iter2

>  <name>  (684) 
CTSLTHJQDZIAOO-UHFFFAOYSA-N-P45

$$$$
CUOKBZIZZKBVCE-UHFFFAOYSA-N-P44
     RDKit          3D

 18 19  0  0  0  0  0  0  0  0999 V2000
  -11.7542  -11.9869   45.7675 O   0  0  0  0  0  0  0  0  0  0  0  0
  -11.2227  -12.8705   46.3093 C   0  0  0  0  0  0  0  0  0  0  0  0
  -11.6366  -14.3487   46.4513 N   0  0  0  0  0  0  0  0  0  0  0  0
  -12.7672  -15.0855   45.8639 C   0  0  2  0  0  0  0  0  0  0  0  0
  -12.5711  -15.2096   44.3273 C   0  0  0  0  0  0  0  0  0  0  0  0
  -11.5069  -16.2667   43.9921 C   0  0  0  0  0  0  0  0  0  0  0  0
  -12.2613  -17.5751   43.7462 C   0  0  0  0  0  0  0  0  0  0  0  0
  -13.7425  -17.2226   43.7368 C   0  0  0  0  0  0  0  0  0  0  0  0
  -13.7696  -15.7200   43.5231 C   0  0  0  0  0  0  0  0  0  0  0  0
  -14.1274  -14.4644   46.2634 C   0  0  0  0  0  0  0  0  0  0  0  0
  -14.1552  -14.1717   47.5866 F   0  0  0  0  0  0  0  0  0  0  0  0
  -14.4067  -13.3362   45.5812 F   0  0  0  0  0  0  0  0  0  0  0  0
  -15.1395  -15.3388   46.0459 F   0  0  0  0  0  0  0  0  0  0  0  0
   -9.9981  -12.6141   47.0726 C   0  0  0  0  0  0  0  0  0  0  0  0
   -9.4668  -13.2321   48.1914 C   0  0  0  0  0  0  0  0  0  0  0  0
   -8.3108  -12.6729   48.7079 N   0  0  0  0  0  0  0  0  0  0  0  0
   -7.9617  -11.6486   47.9643 C   0  0  0  0  0  0  0  0  0  0  0  0
   -8.9902  -11.2810   46.6476 S   0  0  0  0  0  0  0  0  0  0  0  0
  1  2  2  0
  2  3  1  0
  4  3  1  6
  4  5  1  0
  5  6  1  0
  6  7  1  0
  7  8  1  0
  8  9  1  0
  4 10  1  0
 10 11  1  0
 10 12  1  0
 10 13  1  0
  2 14  1  0
 14 15  2  0
 15 16  1  0
 16 17  2  0
 17 18  1  0
  9  5  1  0
 18 14  1  0
M  END
>  <inchikey>  (685) 
CUOKBZIZZKBVCE-UHFFFAOYSA-N

>  <tags>  (685) 
fragmenstein_placed,CpKRS_FrAncestor_bulkdock_iter2

>  <ref_pdb>  (685) 
x0485c

>  <energy_score>  (685) 
-21.034138

>  <distance_score>  (685) 
0.364405

>  <HIPPO Pose ID>  (685) 
56118

>  <ref_mols>  (685) 
x0502b

>  <smiles>  (685) 
O=C(NC(C1CCCC1)C(F)(F)F)c1cncs1

>  <HIPPO Compound ID>  (685) 
34297

>  <alias>  (685) 
CUOKBZIZZKBVCE-UHFFFAOYSA-N-P44

>  <subsites>  (685) 


>  <placement_batch>  (685) 
CpKRS_FrAncestor_bulkdock_iter2

>  <name>  (685) 
CUOKBZIZZKBVCE-UHFFFAOYSA-N-P44

$$$$
DMNZLAWRQAJQHC-UHFFFAOYSA-N-P44
     RDKit          3D

 17 18  0  0  0  0  0  0  0  0999 V2000
  -11.6991  -11.9796   45.8904 O   0  0  0  0  0  0  0  0  0  0  0  0
  -11.1364  -12.8779   46.3752 C   0  0  0  0  0  0  0  0  0  0  0  0
  -11.4948  -14.3767   46.4149 N   0  0  0  0  0  0  0  0  0  0  0  0
  -12.5749  -15.1008   45.7837 C   0  0  0  0  0  0  0  0  0  0  0  0
  -12.3777  -15.2387   44.2720 C   0  0  1  0  0  0  0  0  0  0  0  0
  -11.4483  -16.4080   43.9207 C   0  0  0  0  0  0  0  0  0  0  0  0
  -12.3470  -17.6314   43.7018 C   0  0  0  0  0  0  0  0  0  0  0  0
  -13.7848  -17.1328   43.7890 C   0  0  0  0  0  0  0  0  0  0  0  0
  -13.6564  -15.6442   43.5561 C   0  0  0  0  0  0  0  0  0  0  0  0
  -13.5228  -15.4132   42.2245 F   0  0  0  0  0  0  0  0  0  0  0  0
  -14.7382  -14.9671   43.9735 F   0  0  0  0  0  0  0  0  0  0  0  0
   -9.8987  -12.6144   47.1180 C   0  0  0  0  0  0  0  0  0  0  0  0
   -8.9599  -11.2282   46.6763 S   0  0  0  0  0  0  0  0  0  0  0  0
   -7.8732  -11.5638   47.9469 C   0  0  0  0  0  0  0  0  0  0  0  0
   -8.1456  -12.6154   48.6797 N   0  0  0  0  0  0  0  0  0  0  0  0
   -9.2923  -13.2330   48.2005 C   0  0  0  0  0  0  0  0  0  0  0  0
   -9.8491  -14.6308   49.0253 Cl  0  0  0  0  0  0  0  0  0  0  0  0
  1  2  2  0
  2  3  1  0
  3  4  1  0
  5  4  1  1
  5  6  1  0
  6  7  1  0
  7  8  1  0
  8  9  1  0
  9 10  1  0
  9 11  1  0
  2 12  1  0
 12 13  1  0
 13 14  1  0
 14 15  2  0
 15 16  1  0
 16 17  1  0
  9  5  1  0
 16 12  2  0
M  END
>  <inchikey>  (686) 
DMNZLAWRQAJQHC-UHFFFAOYSA-N

>  <tags>  (686) 
fragmenstein_placed,CpKRS_FrAncestor_bulkdock_iter2

>  <ref_pdb>  (686) 
x0485c

>  <energy_score>  (686) 
-45.605699

>  <distance_score>  (686) 
0.295938

>  <HIPPO Pose ID>  (686) 
56121

>  <ref_mols>  (686) 
x0502b

>  <smiles>  (686) 
O=C(NCC1CCCC1(F)F)c1scnc1Cl

>  <HIPPO Compound ID>  (686) 
34298

>  <alias>  (686) 
DMNZLAWRQAJQHC-UHFFFAOYSA-N-P44

>  <subsites>  (686) 


>  <placement_batch>  (686) 
CpKRS_FrAncestor_bulkdock_iter2

>  <name>  (686) 
DMNZLAWRQAJQHC-UHFFFAOYSA-N-P44

$$$$
XQWHGAWVDVJRJS-UHFFFAOYSA-N-P17
     RDKit          3D

 18 19  0  0  0  0  0  0  0  0999 V2000
    5.5548  -13.2581   25.2670 O   0  0  0  0  0  0  0  0  0  0  0  0
    4.4676  -13.4089   24.8876 C   0  0  0  0  0  0  0  0  0  0  0  0
    3.8070  -12.9827   23.5732 N   0  0  0  0  0  0  0  0  0  0  0  0
    4.3151  -12.1999   22.4883 C   0  0  0  0  0  0  0  0  0  0  0  0
    4.5008  -10.7288   22.8095 C   0  0  0  0  0  0  0  0  0  0  0  0
    4.3048  -10.1834   24.0868 C   0  0  0  0  0  0  0  0  0  0  0  0
    4.5738   -8.8386   24.3576 C   0  0  0  0  0  0  0  0  0  0  0  0
    5.0370   -8.0078   23.3483 C   0  0  0  0  0  0  0  0  0  0  0  0
    5.2073   -8.5205   22.0691 C   0  0  0  0  0  0  0  0  0  0  0  0
    4.9433   -9.8655   21.8001 C   0  0  0  0  0  0  0  0  0  0  0  0
    3.4783  -14.0312   25.8386 C   0  0  0  0  0  0  0  0  0  0  0  0
    2.1441  -13.5748   25.8587 C   0  0  0  0  0  0  0  0  0  0  0  0
    1.2424  -14.0246   26.8273 C   0  0  0  0  0  0  0  0  0  0  0  0
    1.6717  -14.8853   27.8316 C   0  0  0  0  0  0  0  0  0  0  0  0
    2.9908  -15.3179   27.8380 C   0  0  0  0  0  0  0  0  0  0  0  0
    3.3825  -16.1218   28.8819 O   0  0  0  0  0  0  0  0  0  0  0  0
    3.8935  -14.9192   26.8405 C   0  0  0  0  0  0  0  0  0  0  0  0
    5.4988  -15.5433   26.9492 Cl  0  0  0  0  0  0  0  0  0  0  0  0
  1  2  2  0
  2  3  1  0
  3  4  1  0
  4  5  1  0
  5  6  2  0
  6  7  1  0
  7  8  2  0
  8  9  1  0
  9 10  2  0
  2 11  1  0
 11 12  2  0
 12 13  1  0
 13 14  2  0
 14 15  1  0
 15 16  1  0
 15 17  2  0
 17 18  1  0
 10  5  1  0
 17 11  1  0
M  END
>  <inchikey>  (687) 
XQWHGAWVDVJRJS-UHFFFAOYSA-N

>  <tags>  (687) 
fragmenstein_placed,CpKRS_FrAncestor_bulkdock_iter2

>  <ref_pdb>  (687) 
x0485c

>  <energy_score>  (687) 
-10.234444

>  <distance_score>  (687) 
0.408597

>  <HIPPO Pose ID>  (687) 
56139

>  <ref_mols>  (687) 
x0434a

>  <smiles>  (687) 
O=C(NCc1ccccc1)c1cccc(O)c1Cl

>  <HIPPO Compound ID>  (687) 
34314

>  <alias>  (687) 
XQWHGAWVDVJRJS-UHFFFAOYSA-N-P17

>  <subsites>  (687) 


>  <placement_batch>  (687) 
CpKRS_FrAncestor_bulkdock_iter2

>  <name>  (687) 
XQWHGAWVDVJRJS-UHFFFAOYSA-N-P17

$$$$
XJNKVWZHDOHNJL-UHFFFAOYSA-N-P45
     RDKit          3D

 15 16  0  0  0  0  0  0  0  0999 V2000
    5.6683  -13.6595   25.1546 O   0  0  0  0  0  0  0  0  0  0  0  0
    4.5369  -13.4166   25.0198 C   0  0  0  0  0  0  0  0  0  0  0  0
    3.8221  -12.5431   23.9727 N   0  0  0  0  0  0  0  0  0  0  0  0
    4.3555  -11.7112   22.9315 C   0  0  0  0  0  0  0  0  0  0  0  0
    3.8266  -10.2732   22.9663 C   0  0  1  0  0  0  0  0  0  0  0  0
    4.1460   -9.5183   24.2548 C   0  0  0  0  0  0  0  0  0  0  0  0
    5.5728   -9.0327   24.0646 C   0  0  0  0  0  0  0  0  0  0  0  0
    5.6447   -8.6778   22.5900 C   0  0  2  0  0  0  0  0  0  0  0  0
    5.4452   -7.3390   22.4434 F   0  0  0  0  0  0  0  0  0  0  0  0
    4.5057   -9.4126   21.8947 C   0  0  0  0  0  0  0  0  0  0  0  0
    3.5794  -13.9656   25.9813 C   0  0  0  0  0  0  0  0  0  0  0  0
    3.8274  -14.9577   26.9147 C   0  0  0  0  0  0  0  0  0  0  0  0
    2.8172  -15.2127   27.8224 N   0  0  0  0  0  0  0  0  0  0  0  0
    1.8052  -14.4266   27.5473 C   0  0  0  0  0  0  0  0  0  0  0  0
    1.9686  -13.4038   26.1817 S   0  0  0  0  0  0  0  0  0  0  0  0
  1  2  2  0
  2  3  1  0
  3  4  1  0
  5  4  1  1
  5  6  1  0
  6  7  1  0
  7  8  1  0
  8  9  1  1
  8 10  1  0
  2 11  1  0
 11 12  2  0
 12 13  1  0
 13 14  2  0
 14 15  1  0
 10  5  1  0
 15 11  1  0
M  END
>  <inchikey>  (688) 
XJNKVWZHDOHNJL-UHFFFAOYSA-N

>  <tags>  (688) 
fragmenstein_placed,CpKRS_FrAncestor_bulkdock_iter2

>  <ref_pdb>  (688) 
x0485c

>  <energy_score>  (688) 
-44.628473

>  <distance_score>  (688) 
0.370312

>  <HIPPO Pose ID>  (688) 
56185

>  <ref_mols>  (688) 
x0502a

>  <smiles>  (688) 
O=C(NCC1CCC(F)C1)c1cncs1

>  <HIPPO Compound ID>  (688) 
34339

>  <alias>  (688) 
XJNKVWZHDOHNJL-UHFFFAOYSA-N-P45

>  <subsites>  (688) 


>  <placement_batch>  (688) 
CpKRS_FrAncestor_bulkdock_iter2

>  <name>  (688) 
XJNKVWZHDOHNJL-UHFFFAOYSA-N-P45

$$$$
RZFUBHYSTUTDIM-UHFFFAOYSA-N-P46
     RDKit          3D

 16 17  0  0  0  0  0  0  0  0999 V2000
    5.5593  -13.4949   25.1483 O   0  0  0  0  0  0  0  0  0  0  0  0
    4.4412  -13.2917   24.8977 C   0  0  0  0  0  0  0  0  0  0  0  0
    3.8074  -12.5023   23.7407 N   0  0  0  0  0  0  0  0  0  0  0  0
    4.4086  -11.8789   22.6009 C   0  0  0  0  0  0  0  0  0  0  0  0
    5.0751  -10.5713   22.9959 C   0  0  2  0  0  0  0  0  0  0  0  0
    4.2463   -9.7188   23.9589 C   0  0  0  0  0  0  0  0  0  0  0  0
    4.7834   -8.3281   23.7201 C   0  0  0  0  0  0  0  0  0  0  0  0
    4.8450   -8.2865   22.2066 C   0  0  1  0  0  0  0  0  0  0  0  0
    5.6626   -7.3085   21.7678 F   0  0  0  0  0  0  0  0  0  0  0  0
    5.3718   -9.6536   21.8024 C   0  0  0  0  0  0  0  0  0  0  0  0
    3.3806  -13.7309   25.8105 C   0  0  0  0  0  0  0  0  0  0  0  0
    1.8326  -12.9646   25.8512 S   0  0  0  0  0  0  0  0  0  0  0  0
    1.4252  -13.8860   27.2240 C   0  0  0  0  0  0  0  0  0  0  0  0
    2.2921  -14.7908   27.5998 N   0  0  0  0  0  0  0  0  0  0  0  0
    3.4227  -14.7034   26.7944 C   0  0  0  0  0  0  0  0  0  0  0  0
    4.7340  -15.7473   27.1084 Cl  0  0  0  0  0  0  0  0  0  0  0  0
  1  2  2  0
  2  3  1  0
  3  4  1  0
  5  4  1  6
  5  6  1  0
  6  7  1  0
  7  8  1  0
  8  9  1  1
  8 10  1  0
  2 11  1  0
 11 12  1  0
 12 13  1  0
 13 14  2  0
 14 15  1  0
 15 16  1  0
 10  5  1  0
 15 11  2  0
M  END
>  <inchikey>  (689) 
RZFUBHYSTUTDIM-UHFFFAOYSA-N

>  <tags>  (689) 
fragmenstein_placed,CpKRS_FrAncestor_bulkdock_iter2

>  <ref_pdb>  (689) 
x0485c

>  <energy_score>  (689) 
-26.156101

>  <distance_score>  (689) 
0.321251

>  <HIPPO Pose ID>  (689) 
56190

>  <ref_mols>  (689) 
x0502c

>  <smiles>  (689) 
O=C(NCC1CCC(F)C1)c1scnc1Cl

>  <HIPPO Compound ID>  (689) 
34340

>  <alias>  (689) 
RZFUBHYSTUTDIM-UHFFFAOYSA-N-P46

>  <subsites>  (689) 


>  <placement_batch>  (689) 
CpKRS_FrAncestor_bulkdock_iter2

>  <name>  (689) 
RZFUBHYSTUTDIM-UHFFFAOYSA-N-P46

$$$$
ZOVOCGXDYOQYAQ-UHFFFAOYSA-N-P44
     RDKit          3D

 17 18  0  0  0  0  0  0  0  0999 V2000
  -11.8431  -12.2695   46.1766 O   0  0  0  0  0  0  0  0  0  0  0  0
  -11.0939  -13.0698   46.5723 C   0  0  0  0  0  0  0  0  0  0  0  0
  -11.1857  -14.6086   46.5755 N   0  0  0  0  0  0  0  0  0  0  0  0
  -12.2584  -15.4817   46.1793 C   0  0  0  0  0  0  0  0  0  0  0  0
  -12.7795  -15.2016   44.7602 C   0  0  2  0  0  0  0  0  0  0  0  0
  -13.8624  -16.2091   44.3576 C   0  0  0  0  0  0  0  0  0  0  0  0
  -13.1163  -17.4115   43.7707 C   0  0  0  0  0  0  0  0  0  0  0  0
  -11.7049  -16.9137   43.5018 C   0  0  0  0  0  0  0  0  0  0  0  0
  -10.8407  -17.4357   44.4090 F   0  0  0  0  0  0  0  0  0  0  0  0
  -11.2811  -17.2631   42.2750 F   0  0  0  0  0  0  0  0  0  0  0  0
  -11.7446  -15.4104   43.6579 C   0  0  0  0  0  0  0  0  0  0  0  0
   -9.8569  -12.6470   47.2243 C   0  0  0  0  0  0  0  0  0  0  0  0
   -9.1525  -13.2009   48.2802 C   0  0  0  0  0  0  0  0  0  0  0  0
   -8.0474  -12.4884   48.7134 N   0  0  0  0  0  0  0  0  0  0  0  0
   -7.9261  -11.4259   47.9589 C   0  0  0  0  0  0  0  0  0  0  0  0
   -6.6723  -10.2765   48.1881 Cl  0  0  0  0  0  0  0  0  0  0  0  0
   -9.0789  -11.1886   46.7384 S   0  0  0  0  0  0  0  0  0  0  0  0
  1  2  2  0
  2  3  1  0
  3  4  1  0
  5  4  1  1
  5  6  1  0
  6  7  1  0
  7  8  1  0
  8  9  1  0
  8 10  1  0
  8 11  1  0
  2 12  1  0
 12 13  2  0
 13 14  1  0
 14 15  2  0
 15 16  1  0
 15 17  1  0
 11  5  1  0
 17 12  1  0
M  END
>  <inchikey>  (690) 
ZOVOCGXDYOQYAQ-UHFFFAOYSA-N

>  <tags>  (690) 
fragmenstein_placed,CpKRS_FrAncestor_bulkdock_iter2

>  <ref_pdb>  (690) 
x0485c

>  <energy_score>  (690) 
-63.824703

>  <distance_score>  (690) 
0.579475

>  <HIPPO Pose ID>  (690) 
56207

>  <ref_mols>  (690) 
x0502b

>  <smiles>  (690) 
O=C(NCC1CCC(F)(F)C1)c1cnc(Cl)s1

>  <HIPPO Compound ID>  (690) 
34346

>  <alias>  (690) 
ZOVOCGXDYOQYAQ-UHFFFAOYSA-N-P44

>  <subsites>  (690) 


>  <placement_batch>  (690) 
CpKRS_FrAncestor_bulkdock_iter2

>  <name>  (690) 
ZOVOCGXDYOQYAQ-UHFFFAOYSA-N-P44

$$$$
VQMDQNFMXGGQLY-UHFFFAOYSA-N-P44
     RDKit          3D

 16 17  0  0  0  0  0  0  0  0999 V2000
  -11.6899  -11.9377   45.7108 O   0  0  0  0  0  0  0  0  0  0  0  0
  -11.1513  -12.8232   46.2450 C   0  0  0  0  0  0  0  0  0  0  0  0
  -11.5375  -14.3137   46.3453 N   0  0  0  0  0  0  0  0  0  0  0  0
  -12.6170  -15.0448   45.7298 C   0  0  0  0  0  0  0  0  0  0  0  0
  -12.3879  -15.2558   44.2249 C   0  0  1  0  0  0  0  0  0  0  0  0
  -11.4622  -16.4527   43.9523 C   0  0  0  0  0  0  0  0  0  0  0  0
  -12.3572  -17.6279   43.5477 C   0  0  0  0  0  0  0  0  0  0  0  0
  -13.7750  -17.1222   43.6966 C   0  0  0  0  0  0  0  0  0  0  0  0
  -14.2333  -17.3844   44.9424 F   0  0  0  0  0  0  0  0  0  0  0  0
  -14.6143  -17.7043   42.8222 F   0  0  0  0  0  0  0  0  0  0  0  0
  -13.6784  -15.6286   43.4878 C   0  0  0  0  0  0  0  0  0  0  0  0
   -9.9455  -12.5627   47.0361 C   0  0  0  0  0  0  0  0  0  0  0  0
   -9.4277  -13.1945   48.1534 C   0  0  0  0  0  0  0  0  0  0  0  0
   -8.2877  -12.6313   48.7008 N   0  0  0  0  0  0  0  0  0  0  0  0
   -7.9366  -11.5914   47.9801 C   0  0  0  0  0  0  0  0  0  0  0  0
   -8.9456  -11.2124   46.6516 S   0  0  0  0  0  0  0  0  0  0  0  0
  1  2  2  0
  2  3  1  0
  3  4  1  0
  5  4  1  1
  5  6  1  0
  6  7  1  0
  7  8  1  0
  8  9  1  0
  8 10  1  0
  8 11  1  0
  2 12  1  0
 12 13  2  0
 13 14  1  0
 14 15  2  0
 15 16  1  0
 11  5  1  0
 16 12  1  0
M  END
>  <inchikey>  (691) 
VQMDQNFMXGGQLY-UHFFFAOYSA-N

>  <tags>  (691) 
fragmenstein_placed,CpKRS_FrAncestor_bulkdock_iter2

>  <ref_pdb>  (691) 
x0485c

>  <energy_score>  (691) 
-24.38679

>  <distance_score>  (691) 
0.379563

>  <HIPPO Pose ID>  (691) 
56210

>  <ref_mols>  (691) 
x0502b

>  <smiles>  (691) 
O=C(NCC1CCC(F)(F)C1)c1cncs1

>  <HIPPO Compound ID>  (691) 
34347

>  <alias>  (691) 
VQMDQNFMXGGQLY-UHFFFAOYSA-N-P44

>  <subsites>  (691) 


>  <placement_batch>  (691) 
CpKRS_FrAncestor_bulkdock_iter2

>  <name>  (691) 
VQMDQNFMXGGQLY-UHFFFAOYSA-N-P44

$$$$
DPNMPWXPZKRGHP-UHFFFAOYSA-N-P44
     RDKit          3D

 17 18  0  0  0  0  0  0  0  0999 V2000
  -11.6837  -12.0096   45.8709 O   0  0  0  0  0  0  0  0  0  0  0  0
  -11.1158  -12.8948   46.3737 C   0  0  0  0  0  0  0  0  0  0  0  0
  -11.4654  -14.3941   46.4435 N   0  0  0  0  0  0  0  0  0  0  0  0
  -12.5389  -15.1354   45.8285 C   0  0  0  0  0  0  0  0  0  0  0  0
  -12.3500  -15.2753   44.3090 C   0  0  1  0  0  0  0  0  0  0  0  0
  -11.4456  -16.4663   43.9558 C   0  0  0  0  0  0  0  0  0  0  0  0
  -12.3651  -17.6231   43.5526 C   0  0  0  0  0  0  0  0  0  0  0  0
  -13.7732  -17.1026   43.7412 C   0  0  0  0  0  0  0  0  0  0  0  0
  -14.2166  -17.4034   44.9837 F   0  0  0  0  0  0  0  0  0  0  0  0
  -14.6338  -17.6411   42.8594 F   0  0  0  0  0  0  0  0  0  0  0  0
  -13.6602  -15.6037   43.5854 C   0  0  0  0  0  0  0  0  0  0  0  0
   -9.8814  -12.6099   47.1144 C   0  0  0  0  0  0  0  0  0  0  0  0
   -8.9563  -11.2193   46.6580 S   0  0  0  0  0  0  0  0  0  0  0  0
   -7.8659  -11.5309   47.9316 C   0  0  0  0  0  0  0  0  0  0  0  0
   -8.1279  -12.5772   48.6757 N   0  0  0  0  0  0  0  0  0  0  0  0
   -9.2693  -13.2106   48.2041 C   0  0  0  0  0  0  0  0  0  0  0  0
   -9.8129  -14.6039   49.0456 Cl  0  0  0  0  0  0  0  0  0  0  0  0
  1  2  2  0
  2  3  1  0
  3  4  1  0
  5  4  1  1
  5  6  1  0
  6  7  1  0
  7  8  1  0
  8  9  1  0
  8 10  1  0
  8 11  1  0
  2 12  1  0
 12 13  1  0
 13 14  1  0
 14 15  2  0
 15 16  1  0
 16 17  1  0
 11  5  1  0
 16 12  2  0
M  END
>  <inchikey>  (692) 
DPNMPWXPZKRGHP-UHFFFAOYSA-N

>  <tags>  (692) 
fragmenstein_placed,CpKRS_FrAncestor_bulkdock_iter2

>  <ref_pdb>  (692) 
x0485c

>  <energy_score>  (692) 
-26.652402

>  <distance_score>  (692) 
0.294725

>  <HIPPO Pose ID>  (692) 
56213

>  <ref_mols>  (692) 
x0502b

>  <smiles>  (692) 
O=C(NCC1CCC(F)(F)C1)c1scnc1Cl

>  <HIPPO Compound ID>  (692) 
34348

>  <alias>  (692) 
DPNMPWXPZKRGHP-UHFFFAOYSA-N-P44

>  <subsites>  (692) 


>  <placement_batch>  (692) 
CpKRS_FrAncestor_bulkdock_iter2

>  <name>  (692) 
DPNMPWXPZKRGHP-UHFFFAOYSA-N-P44

$$$$
PIDSEZUHJRRXFS-UHFFFAOYSA-N-P35
     RDKit          3D

 15 16  0  0  0  0  0  0  0  0999 V2000
    5.7525  -13.8334   25.0402 O   0  0  0  0  0  0  0  0  0  0  0  0
    4.6439  -13.4794   25.0026 C   0  0  0  0  0  0  0  0  0  0  0  0
    3.9160  -12.5905   23.9816 N   0  0  0  0  0  0  0  0  0  0  0  0
    4.3717  -12.0283   22.7447 C   0  0  0  0  0  0  0  0  0  0  0  0
    4.8083  -10.6294   22.9443 C   0  0  0  0  0  0  0  0  0  0  0  0
    5.7680  -10.0479   23.7420 C   0  0  0  0  0  0  0  0  0  0  0  0
    5.7770   -8.6709   23.4535 C   0  0  0  0  0  0  0  0  0  0  0  0
    4.8364   -8.5002   22.4697 C   0  0  0  0  0  0  0  0  0  0  0  0
    4.2267   -9.6733   22.1646 O   0  0  0  0  0  0  0  0  0  0  0  0
    3.6815  -13.9335   26.0597 C   0  0  0  0  0  0  0  0  0  0  0  0
    4.0721  -14.8810   27.0008 C   0  0  0  0  0  0  0  0  0  0  0  0
    3.3002  -15.2134   28.0732 N   0  0  0  0  0  0  0  0  0  0  0  0
    2.1102  -14.5771   28.1200 C   0  0  0  0  0  0  0  0  0  0  0  0
    1.7023  -13.6625   27.1548 C   0  0  0  0  0  0  0  0  0  0  0  0
    2.4636  -13.3119   26.0970 N   0  0  0  0  0  0  0  0  0  0  0  0
  1  2  2  0
  2  3  1  0
  3  4  1  0
  4  5  1  0
  5  6  2  0
  6  7  1  0
  7  8  2  0
  8  9  1  0
  2 10  1  0
 10 11  2  0
 11 12  1  0
 12 13  2  0
 13 14  1  0
 14 15  2  0
  9  5  1  0
 15 10  1  0
M  END
>  <inchikey>  (693) 
PIDSEZUHJRRXFS-UHFFFAOYSA-N

>  <tags>  (693) 
fragmenstein_placed,CpKRS_FrAncestor_bulkdock_iter2

>  <ref_pdb>  (693) 
x0485c

>  <energy_score>  (693) 
-1.348138

>  <distance_score>  (693) 
0.314844

>  <HIPPO Pose ID>  (693) 
56235

>  <ref_mols>  (693) 
x0492b

>  <smiles>  (693) 
O=C(NCc1ccco1)c1cnccn1

>  <HIPPO Compound ID>  (693) 
16

>  <alias>  (693) 
PIDSEZUHJRRXFS-UHFFFAOYSA-N-P35

>  <subsites>  (693) 


>  <placement_batch>  (693) 
CpKRS_FrAncestor_bulkdock_iter2

>  <name>  (693) 
PIDSEZUHJRRXFS-UHFFFAOYSA-N-P35

$$$$
AQHNHPMULCUFMN-UHFFFAOYSA-N-P32
     RDKit          3D

 14 14  0  0  0  0  0  0  0  0999 V2000
    1.9807  -24.7582   13.2598 O   0  0  0  0  0  0  0  0  0  0  0  0
    1.2739  -24.3920   14.1070 C   0  0  0  0  0  0  0  0  0  0  0  0
    1.2101  -24.7854   15.5908 N   0  0  0  0  0  0  0  0  0  0  0  0
    1.9405  -25.7816   16.3244 C   0  0  0  0  0  0  0  0  0  0  0  0
    2.7138  -25.1388   17.4458 C   0  0  0  0  0  0  0  0  0  0  0  0
    2.5205  -25.5233   18.7747 C   0  0  0  0  0  0  0  0  0  0  0  0
    3.1717  -24.8346   19.7953 C   0  0  0  0  0  0  0  0  0  0  0  0
    4.0182  -23.7553   19.4915 C   0  0  0  0  0  0  0  0  0  0  0  0
    4.7545  -22.9197   20.8570 S   0  0  0  0  0  0  0  0  0  0  0  0
    3.8594  -21.8739   21.2977 O   0  0  0  0  0  0  0  0  0  0  0  0
    5.2221  -23.9879   21.7143 O   0  0  0  0  0  0  0  0  0  0  0  0
    6.4262  -21.9758   20.2031 Cl  0  0  0  0  0  0  0  0  0  0  0  0
    4.2652  -23.3988   18.1750 C   0  0  0  0  0  0  0  0  0  0  0  0
    3.6124  -24.0967   17.1625 C   0  0  0  0  0  0  0  0  0  0  0  0
  1  2  2  0
  2  3  1  0
  3  4  1  0
  4  5  1  0
  5  6  2  0
  6  7  1  0
  7  8  2  0
  8  9  1  0
  9 10  2  0
  9 11  2  0
  9 12  1  0
  8 13  1  0
 13 14  2  0
 14  5  1  0
M  END
>  <inchikey>  (694) 
AQHNHPMULCUFMN-UHFFFAOYSA-N

>  <tags>  (694) 
fragmenstein_placed,CpKRS_FrAncestor_bulkdock_iter2

>  <ref_pdb>  (694) 
x0485c

>  <energy_score>  (694) 
-0.846818

>  <distance_score>  (694) 
0.748877

>  <HIPPO Pose ID>  (694) 
56236

>  <ref_mols>  (694) 
x0487a

>  <smiles>  (694) 
O=CNCc1ccc(S(=O)(=O)Cl)cc1

>  <HIPPO Compound ID>  (694) 
34362

>  <alias>  (694) 
AQHNHPMULCUFMN-UHFFFAOYSA-N-P32

>  <subsites>  (694) 


>  <placement_batch>  (694) 
CpKRS_FrAncestor_bulkdock_iter2

>  <name>  (694) 
AQHNHPMULCUFMN-UHFFFAOYSA-N-P32

$$$$
KHFFKPGRVYSVRL-UHFFFAOYSA-N-P48
     RDKit          3D

 12 12  0  0  0  0  0  0  0  0999 V2000
    4.9994  -12.3046   22.0907 O   0  0  0  0  0  0  0  0  0  0  0  0
    4.5540  -11.8000   23.0450 C   0  0  0  0  0  0  0  0  0  0  0  0
    4.1379  -12.4178   24.4097 N   0  0  0  0  0  0  0  0  0  0  0  0
    4.2740  -13.7593   24.9064 C   0  0  0  0  0  0  0  0  0  0  0  0
    3.2269  -14.0720   25.9217 C   0  0  0  0  0  0  0  0  0  0  0  0
    3.3290  -14.9204   27.0093 C   0  0  0  0  0  0  0  0  0  0  0  0
    2.2016  -15.0385   27.7989 N   0  0  0  0  0  0  0  0  0  0  0  0
    1.2440  -14.2913   27.2990 C   0  0  0  0  0  0  0  0  0  0  0  0
    1.6307  -13.4288   25.8696 S   0  0  0  0  0  0  0  0  0  0  0  0
    4.1651  -10.3208   23.1078 C   0  0  1  0  0  0  0  0  0  0  0  0
    4.2287   -9.7923   24.3632 F   0  0  0  0  0  0  0  0  0  0  0  0
    5.2893   -9.2773   21.9233 Br  0  0  0  0  0  0  0  0  0  0  0  0
  1  2  2  0
  2  3  1  0
  3  4  1  0
  4  5  1  0
  5  6  2  0
  6  7  1  0
  7  8  2  0
  8  9  1  0
  2 10  1  0
 10 11  1  1
 10 12  1  0
  9  5  1  0
M  END
>  <inchikey>  (695) 
KHFFKPGRVYSVRL-UHFFFAOYSA-N

>  <tags>  (695) 
fragmenstein_placed,CpKRS_FrAncestor_bulkdock_iter2

>  <ref_pdb>  (695) 
x0485c

>  <energy_score>  (695) 
-17.483182

>  <distance_score>  (695) 
0.647811

>  <HIPPO Pose ID>  (695) 
56280

>  <ref_mols>  (695) 
x0504a

>  <smiles>  (695) 
O=C(NCc1cncs1)C(F)Br

>  <HIPPO Compound ID>  (695) 
34384

>  <alias>  (695) 
KHFFKPGRVYSVRL-UHFFFAOYSA-N-P48

>  <subsites>  (695) 


>  <placement_batch>  (695) 
CpKRS_FrAncestor_bulkdock_iter2

>  <name>  (695) 
KHFFKPGRVYSVRL-UHFFFAOYSA-N-P48

$$$$
LFPCUMANIGXSLR-UHFFFAOYSA-N-P48
     RDKit          3D

 13 13  0  0  0  0  0  0  0  0999 V2000
    3.7650  -12.0481   21.8727 O   0  0  0  0  0  0  0  0  0  0  0  0
    4.0373  -11.6784   22.9495 C   0  0  0  0  0  0  0  0  0  0  0  0
    4.1061  -12.4592   24.2983 N   0  0  0  0  0  0  0  0  0  0  0  0
    3.9474  -13.8609   24.5739 C   0  0  0  0  0  0  0  0  0  0  0  0
    3.0456  -14.0705   25.7389 C   0  0  0  0  0  0  0  0  0  0  0  0
    3.2626  -14.8351   26.8703 C   0  0  0  0  0  0  0  0  0  0  0  0
    2.2182  -14.8944   27.7729 N   0  0  0  0  0  0  0  0  0  0  0  0
    1.2154  -14.1756   27.3209 C   0  0  0  0  0  0  0  0  0  0  0  0
    1.4633  -13.4004   25.8123 S   0  0  0  0  0  0  0  0  0  0  0  0
    4.3410  -10.1928   23.2417 C   0  0  0  0  0  0  0  0  0  0  0  0
    5.0848  -10.0038   24.3667 F   0  0  0  0  0  0  0  0  0  0  0  0
    5.0067   -9.5733   22.2272 F   0  0  0  0  0  0  0  0  0  0  0  0
    2.6154   -9.2999   23.5027 Br  0  0  0  0  0  0  0  0  0  0  0  0
  1  2  2  0
  2  3  1  0
  3  4  1  0
  4  5  1  0
  5  6  2  0
  6  7  1  0
  7  8  2  0
  8  9  1  0
  2 10  1  0
 10 11  1  0
 10 12  1  0
 10 13  1  0
  9  5  1  0
M  END
>  <inchikey>  (696) 
LFPCUMANIGXSLR-UHFFFAOYSA-N

>  <tags>  (696) 
fragmenstein_placed,CpKRS_FrAncestor_bulkdock_iter2

>  <ref_pdb>  (696) 
x0485c

>  <energy_score>  (696) 
-39.878653

>  <distance_score>  (696) 
0.547606

>  <HIPPO Pose ID>  (696) 
56283

>  <ref_mols>  (696) 
x0504a

>  <smiles>  (696) 
O=C(NCc1cncs1)C(F)(F)Br

>  <HIPPO Compound ID>  (696) 
34385

>  <alias>  (696) 
LFPCUMANIGXSLR-UHFFFAOYSA-N-P48

>  <subsites>  (696) 


>  <placement_batch>  (696) 
CpKRS_FrAncestor_bulkdock_iter2

>  <name>  (696) 
LFPCUMANIGXSLR-UHFFFAOYSA-N-P48

$$$$
DPEGCRJFZPJVGL-UHFFFAOYSA-N-P49
     RDKit          3D

 13 13  0  0  0  0  0  0  0  0999 V2000
    4.2446  -11.0952   21.8303 O   0  0  0  0  0  0  0  0  0  0  0  0
    4.1456  -10.9201   22.9842 C   0  0  0  0  0  0  0  0  0  0  0  0
    3.8008  -11.9207   24.1329 N   0  0  0  0  0  0  0  0  0  0  0  0
    3.6043  -13.3454   24.1023 C   0  0  0  0  0  0  0  0  0  0  0  0
    2.9965  -13.8196   25.3755 C   0  0  0  0  0  0  0  0  0  0  0  0
    3.4866  -14.7436   26.2807 C   0  0  0  0  0  0  0  0  0  0  0  0
    2.6736  -15.0199   27.3627 N   0  0  0  0  0  0  0  0  0  0  0  0
    1.5876  -14.2890   27.2829 C   0  0  0  0  0  0  0  0  0  0  0  0
    1.4544  -13.2736   25.9100 S   0  0  0  0  0  0  0  0  0  0  0  0
    4.3212   -9.5130   23.6218 C   0  0  0  0  0  0  0  0  0  0  0  0
    3.2722   -8.6769   23.3484 F   0  0  0  0  0  0  0  0  0  0  0  0
    5.4384   -8.8738   23.1781 F   0  0  0  0  0  0  0  0  0  0  0  0
    4.4296   -9.5687   24.9813 F   0  0  0  0  0  0  0  0  0  0  0  0
  1  2  2  0
  2  3  1  0
  3  4  1  0
  4  5  1  0
  5  6  2  0
  6  7  1  0
  7  8  2  0
  8  9  1  0
  2 10  1  0
 10 11  1  0
 10 12  1  0
 10 13  1  0
  9  5  1  0
M  END
>  <inchikey>  (697) 
DPEGCRJFZPJVGL-UHFFFAOYSA-N

>  <tags>  (697) 
fragmenstein_placed,CpKRS_FrAncestor_bulkdock_iter2

>  <ref_pdb>  (697) 
x0485c

>  <energy_score>  (697) 
-22.204383

>  <distance_score>  (697) 
0.539851

>  <HIPPO Pose ID>  (697) 
56287

>  <ref_mols>  (697) 
x0504b

>  <smiles>  (697) 
O=C(NCc1cncs1)C(F)(F)F

>  <HIPPO Compound ID>  (697) 
34386

>  <alias>  (697) 
DPEGCRJFZPJVGL-UHFFFAOYSA-N-P49

>  <subsites>  (697) 


>  <placement_batch>  (697) 
CpKRS_FrAncestor_bulkdock_iter2

>  <name>  (697) 
DPEGCRJFZPJVGL-UHFFFAOYSA-N-P49

$$$$
WAIWBWNAQIMDHS-UHFFFAOYSA-N-P48
     RDKit          3D

 12 12  0  0  0  0  0  0  0  0999 V2000
    5.2450  -12.2931   22.0919 O   0  0  0  0  0  0  0  0  0  0  0  0
    4.6788  -11.7978   22.9863 C   0  0  0  0  0  0  0  0  0  0  0  0
    4.1547  -12.4170   24.3148 N   0  0  0  0  0  0  0  0  0  0  0  0
    4.3050  -13.7429   24.8492 C   0  0  0  0  0  0  0  0  0  0  0  0
    3.2594  -14.0476   25.8692 C   0  0  0  0  0  0  0  0  0  0  0  0
    3.3616  -14.8962   26.9571 C   0  0  0  0  0  0  0  0  0  0  0  0
    2.2359  -15.0117   27.7496 N   0  0  0  0  0  0  0  0  0  0  0  0
    1.2800  -14.2592   27.2543 C   0  0  0  0  0  0  0  0  0  0  0  0
    1.6663  -13.3961   25.8249 S   0  0  0  0  0  0  0  0  0  0  0  0
    4.2213  -10.3359   22.9592 C   0  0  0  0  0  0  0  0  0  0  0  0
    4.2910   -9.7291   24.1798 F   0  0  0  0  0  0  0  0  0  0  0  0
    4.9388   -9.5531   22.1063 F   0  0  0  0  0  0  0  0  0  0  0  0
  1  2  2  0
  2  3  1  0
  3  4  1  0
  4  5  1  0
  5  6  2  0
  6  7  1  0
  7  8  2  0
  8  9  1  0
  2 10  1  0
 10 11  1  0
 10 12  1  0
  9  5  1  0
M  END
>  <inchikey>  (698) 
WAIWBWNAQIMDHS-UHFFFAOYSA-N

>  <tags>  (698) 
fragmenstein_placed,CpKRS_FrAncestor_bulkdock_iter2

>  <ref_pdb>  (698) 
x0485c

>  <energy_score>  (698) 
-32.108925

>  <distance_score>  (698) 
0.486625

>  <HIPPO Pose ID>  (698) 
56289

>  <ref_mols>  (698) 
x0504a

>  <smiles>  (698) 
O=C(NCc1cncs1)C(F)F

>  <HIPPO Compound ID>  (698) 
34387

>  <alias>  (698) 
WAIWBWNAQIMDHS-UHFFFAOYSA-N-P48

>  <subsites>  (698) 


>  <placement_batch>  (698) 
CpKRS_FrAncestor_bulkdock_iter2

>  <name>  (698) 
WAIWBWNAQIMDHS-UHFFFAOYSA-N-P48

$$$$
KFWPCKJOPTUVFF-UHFFFAOYSA-N-P64
     RDKit          3D

 15 16  0  0  0  0  0  0  0  0999 V2000
    5.6080  -14.3480   23.9763 O   0  0  0  0  0  0  0  0  0  0  0  0
    4.7346  -13.6066   24.1840 C   0  0  0  0  0  0  0  0  0  0  0  0
    4.3779  -12.2700   23.5067 N   0  0  0  0  0  0  0  0  0  0  0  0
    4.9637  -11.6143   22.3729 C   0  0  0  0  0  0  0  0  0  0  0  0
    5.1618  -10.1695   22.6464 C   0  0  0  0  0  0  0  0  0  0  0  0
    4.9785   -9.0928   21.7489 C   0  0  0  0  0  0  0  0  0  0  0  0
    5.2233   -7.9005   22.2997 N   0  0  0  0  0  0  0  0  0  0  0  0
    5.6834   -8.2134   23.5251 N   0  0  0  0  0  0  0  0  0  0  0  0
    5.6301   -9.5498   23.7850 C   0  0  0  0  0  0  0  0  0  0  0  0
    3.7236  -13.9444   25.2036 C   0  0  0  0  0  0  0  0  0  0  0  0
    2.3957  -13.5639   25.3155 C   0  0  0  0  0  0  0  0  0  0  0  0
    1.7476  -14.2130   26.3959 C   0  0  0  0  0  0  0  0  0  0  0  0
   -0.0929  -13.9760   26.7164 Br  0  0  0  0  0  0  0  0  0  0  0  0
    2.5708  -15.0381   27.1149 C   0  0  0  0  0  0  0  0  0  0  0  0
    4.1454  -15.0628   26.4498 S   0  0  0  0  0  0  0  0  0  0  0  0
  1  2  2  0
  2  3  1  0
  3  4  1  0
  4  5  1  0
  5  6  1  0
  6  7  2  0
  7  8  1  0
  8  9  1  0
  2 10  1  0
 10 11  2  0
 11 12  1  0
 12 13  1  0
 12 14  2  0
 14 15  1  0
  9  5  2  0
 15 10  1  0
M  END
>  <inchikey>  (699) 
KFWPCKJOPTUVFF-UHFFFAOYSA-N

>  <tags>  (699) 
fragmenstein_placed,CpKRS_FrAncestor_bulkdock_iter2

>  <ref_pdb>  (699) 
x0485c

>  <energy_score>  (699) 
-6.093225

>  <distance_score>  (699) 
0.444997

>  <HIPPO Pose ID>  (699) 
56293

>  <ref_mols>  (699) 
x0787b

>  <smiles>  (699) 
O=C(NCc1cn[nH]c1)c1cc(Br)cs1

>  <HIPPO Compound ID>  (699) 
34388

>  <alias>  (699) 
KFWPCKJOPTUVFF-UHFFFAOYSA-N-P64

>  <subsites>  (699) 


>  <placement_batch>  (699) 
CpKRS_FrAncestor_bulkdock_iter2

>  <name>  (699) 
KFWPCKJOPTUVFF-UHFFFAOYSA-N-P64

$$$$
GCQQPYFMKKPLSB-UHFFFAOYSA-N-P64
     RDKit          3D

 15 16  0  0  0  0  0  0  0  0999 V2000
    5.4774  -14.3734   23.7744 O   0  0  0  0  0  0  0  0  0  0  0  0
    4.7035  -13.5701   24.1054 C   0  0  0  0  0  0  0  0  0  0  0  0
    4.4127  -12.1720   23.5345 N   0  0  0  0  0  0  0  0  0  0  0  0
    4.9457  -11.5076   22.3815 C   0  0  0  0  0  0  0  0  0  0  0  0
    5.1710  -10.0703   22.6646 C   0  0  0  0  0  0  0  0  0  0  0  0
    4.9768   -8.9847   21.7817 C   0  0  0  0  0  0  0  0  0  0  0  0
    5.2506   -7.8013   22.3367 N   0  0  0  0  0  0  0  0  0  0  0  0
    5.7392   -8.1300   23.5467 N   0  0  0  0  0  0  0  0  0  0  0  0
    5.6788   -9.4681   23.7959 C   0  0  0  0  0  0  0  0  0  0  0  0
    3.7922  -13.8656   25.2288 C   0  0  0  0  0  0  0  0  0  0  0  0
    2.5684  -13.3191   25.5909 C   0  0  0  0  0  0  0  0  0  0  0  0
    2.0070  -13.9404   26.7502 C   0  0  0  0  0  0  0  0  0  0  0  0
    2.8169  -14.9418   27.2153 C   0  0  0  0  0  0  0  0  0  0  0  0
    2.4056  -16.0121   28.7390 Br  0  0  0  0  0  0  0  0  0  0  0  0
    4.2225  -15.1467   26.3058 S   0  0  0  0  0  0  0  0  0  0  0  0
  1  2  2  0
  2  3  1  0
  3  4  1  0
  4  5  1  0
  5  6  1  0
  6  7  2  0
  7  8  1  0
  8  9  1  0
  2 10  1  0
 10 11  2  0
 11 12  1  0
 12 13  2  0
 13 14  1  0
 13 15  1  0
  9  5  2  0
 15 10  1  0
M  END
>  <inchikey>  (700) 
GCQQPYFMKKPLSB-UHFFFAOYSA-N

>  <tags>  (700) 
fragmenstein_placed,CpKRS_FrAncestor_bulkdock_iter2

>  <ref_pdb>  (700) 
x0485c

>  <energy_score>  (700) 
-3.071139

>  <distance_score>  (700) 
0.408817

>  <HIPPO Pose ID>  (700) 
56295

>  <ref_mols>  (700) 
x0787b

>  <smiles>  (700) 
O=C(NCc1cn[nH]c1)c1ccc(Br)s1

>  <HIPPO Compound ID>  (700) 
34389

>  <alias>  (700) 
GCQQPYFMKKPLSB-UHFFFAOYSA-N-P64

>  <subsites>  (700) 


>  <placement_batch>  (700) 
CpKRS_FrAncestor_bulkdock_iter2

>  <name>  (700) 
GCQQPYFMKKPLSB-UHFFFAOYSA-N-P64

$$$$
PWOUNKVTBPLWOS-UHFFFAOYSA-N-P64
     RDKit          3D

 18 19  0  0  0  0  0  0  0  0999 V2000
    5.5261  -14.3955   23.8492 O   0  0  0  0  0  0  0  0  0  0  0  0
    4.7291  -13.6106   24.1703 C   0  0  0  0  0  0  0  0  0  0  0  0
    4.3969  -12.2285   23.5806 N   0  0  0  0  0  0  0  0  0  0  0  0
    4.9100  -11.5639   22.4166 C   0  0  0  0  0  0  0  0  0  0  0  0
    5.1410  -10.1233   22.6834 C   0  0  0  0  0  0  0  0  0  0  0  0
    4.9629   -9.0484   21.7825 C   0  0  0  0  0  0  0  0  0  0  0  0
    5.2397   -7.8585   22.3223 N   0  0  0  0  0  0  0  0  0  0  0  0
    5.7196   -8.1732   23.5390 N   0  0  0  0  0  0  0  0  0  0  0  0
    5.6462   -9.5070   23.8081 C   0  0  0  0  0  0  0  0  0  0  0  0
    3.8215  -13.9304   25.2950 C   0  0  0  0  0  0  0  0  0  0  0  0
    2.5942  -13.4077   25.6685 C   0  0  0  0  0  0  0  0  0  0  0  0
    2.0364  -14.0676   26.8077 C   0  0  0  0  0  0  0  0  0  0  0  0
    2.8395  -15.0895   27.2751 C   0  0  0  0  0  0  0  0  0  0  0  0
    2.6110  -16.0160   28.4210 C   0  0  0  0  0  0  0  0  0  0  0  0
    1.3172  -15.9715   28.8507 F   0  0  0  0  0  0  0  0  0  0  0  0
    2.8747  -17.3093   28.1289 F   0  0  0  0  0  0  0  0  0  0  0  0
    3.3727  -15.7013   29.4987 F   0  0  0  0  0  0  0  0  0  0  0  0
    4.2693  -15.2193   26.3507 S   0  0  0  0  0  0  0  0  0  0  0  0
  1  2  2  0
  2  3  1  0
  3  4  1  0
  4  5  1  0
  5  6  1  0
  6  7  2  0
  7  8  1  0
  8  9  1  0
  2 10  1  0
 10 11  2  0
 11 12  1  0
 12 13  2  0
 13 14  1  0
 14 15  1  0
 14 16  1  0
 14 17  1  0
 13 18  1  0
  9  5  2  0
 18 10  1  0
M  END
>  <inchikey>  (701) 
PWOUNKVTBPLWOS-UHFFFAOYSA-N

>  <tags>  (701) 
fragmenstein_placed,CpKRS_FrAncestor_bulkdock_iter2

>  <ref_pdb>  (701) 
x0485c

>  <energy_score>  (701) 
-6.475804

>  <distance_score>  (701) 
0.392609

>  <HIPPO Pose ID>  (701) 
56297

>  <ref_mols>  (701) 
x0787b

>  <smiles>  (701) 
O=C(NCc1cn[nH]c1)c1ccc(C(F)(F)F)s1

>  <HIPPO Compound ID>  (701) 
34390

>  <alias>  (701) 
PWOUNKVTBPLWOS-UHFFFAOYSA-N-P64

>  <subsites>  (701) 


>  <placement_batch>  (701) 
CpKRS_FrAncestor_bulkdock_iter2

>  <name>  (701) 
PWOUNKVTBPLWOS-UHFFFAOYSA-N-P64

$$$$
QTPMSENZMMCOEH-UHFFFAOYSA-N-P64
     RDKit          3D

 18 19  0  0  0  0  0  0  0  0999 V2000
    5.6627  -14.4000   23.7488 O   0  0  0  0  0  0  0  0  0  0  0  0
    4.8248  -13.6449   24.0356 C   0  0  0  0  0  0  0  0  0  0  0  0
    4.4073  -12.3190   23.3729 N   0  0  0  0  0  0  0  0  0  0  0  0
    4.9920  -11.6003   22.2792 C   0  0  0  0  0  0  0  0  0  0  0  0
    5.1645  -10.1660   22.6124 C   0  0  0  0  0  0  0  0  0  0  0  0
    4.9727   -9.0594   21.7540 C   0  0  0  0  0  0  0  0  0  0  0  0
    5.2048   -7.8858   22.3480 N   0  0  0  0  0  0  0  0  0  0  0  0
    5.6624   -8.2383   23.5636 N   0  0  0  0  0  0  0  0  0  0  0  0
    5.6190   -9.5838   23.7756 C   0  0  0  0  0  0  0  0  0  0  0  0
    3.9099  -13.9888   25.1469 C   0  0  0  0  0  0  0  0  0  0  0  0
    2.6561  -13.5140   25.4922 C   0  0  0  0  0  0  0  0  0  0  0  0
    2.0811  -14.1831   26.6307 C   0  0  0  0  0  0  0  0  0  0  0  0
    0.7529  -13.8704   27.2046 C   0  0  0  0  0  0  0  0  0  0  0  0
   -0.2090  -14.7639   26.8530 F   0  0  0  0  0  0  0  0  0  0  0  0
    0.7640  -13.8491   28.5618 F   0  0  0  0  0  0  0  0  0  0  0  0
    0.2960  -12.6523   26.8065 F   0  0  0  0  0  0  0  0  0  0  0  0
    2.9358  -15.1526   27.1136 C   0  0  0  0  0  0  0  0  0  0  0  0
    4.3875  -15.2447   26.2301 S   0  0  0  0  0  0  0  0  0  0  0  0
  1  2  2  0
  2  3  1  0
  3  4  1  0
  4  5  1  0
  5  6  1  0
  6  7  2  0
  7  8  1  0
  8  9  1  0
  2 10  1  0
 10 11  2  0
 11 12  1  0
 12 13  1  0
 13 14  1  0
 13 15  1  0
 13 16  1  0
 12 17  2  0
 17 18  1  0
  9  5  2  0
 18 10  1  0
M  END
>  <inchikey>  (702) 
QTPMSENZMMCOEH-UHFFFAOYSA-N

>  <tags>  (702) 
fragmenstein_placed,CpKRS_FrAncestor_bulkdock_iter2

>  <ref_pdb>  (702) 
x0485c

>  <energy_score>  (702) 
-4.269926

>  <distance_score>  (702) 
0.474505

>  <HIPPO Pose ID>  (702) 
56299

>  <ref_mols>  (702) 
x0787b

>  <smiles>  (702) 
O=C(NCc1cn[nH]c1)c1cc(C(F)(F)F)cs1

>  <HIPPO Compound ID>  (702) 
34391

>  <alias>  (702) 
QTPMSENZMMCOEH-UHFFFAOYSA-N-P64

>  <subsites>  (702) 


>  <placement_batch>  (702) 
CpKRS_FrAncestor_bulkdock_iter2

>  <name>  (702) 
QTPMSENZMMCOEH-UHFFFAOYSA-N-P64

$$$$
FFJQGRWQEQHDLP-UHFFFAOYSA-N-P64
     RDKit          3D

 15 16  0  0  0  0  0  0  0  0999 V2000
    5.5904  -14.3757   24.0326 O   0  0  0  0  0  0  0  0  0  0  0  0
    4.7181  -13.6299   24.2301 C   0  0  0  0  0  0  0  0  0  0  0  0
    4.2938  -12.3637   23.4606 N   0  0  0  0  0  0  0  0  0  0  0  0
    4.9091  -11.6996   22.3462 C   0  0  0  0  0  0  0  0  0  0  0  0
    5.1117  -10.2567   22.6313 C   0  0  0  0  0  0  0  0  0  0  0  0
    4.9606   -9.1734   21.7347 C   0  0  0  0  0  0  0  0  0  0  0  0
    5.2060   -7.9858   22.2957 N   0  0  0  0  0  0  0  0  0  0  0  0
    5.6445   -8.3097   23.5259 N   0  0  0  0  0  0  0  0  0  0  0  0
    5.5648   -9.6461   23.7806 C   0  0  0  0  0  0  0  0  0  0  0  0
    3.7727  -13.9187   25.3384 C   0  0  0  0  0  0  0  0  0  0  0  0
    2.6186  -13.2849   25.7822 C   0  0  0  0  0  0  0  0  0  0  0  0
    2.0104  -13.9509   26.8942 C   0  0  0  0  0  0  0  0  0  0  0  0
    2.7194  -15.0616   27.2624 C   0  0  0  0  0  0  0  0  0  0  0  0
    2.3533  -15.8600   28.2799 F   0  0  0  0  0  0  0  0  0  0  0  0
    4.0895  -15.3192   26.3168 S   0  0  0  0  0  0  0  0  0  0  0  0
  1  2  2  0
  2  3  1  0
  3  4  1  0
  4  5  1  0
  5  6  1  0
  6  7  2  0
  7  8  1  0
  8  9  1  0
  2 10  1  0
 10 11  2  0
 11 12  1  0
 12 13  2  0
 13 14  1  0
 13 15  1  0
  9  5  2  0
 15 10  1  0
M  END
>  <inchikey>  (703) 
FFJQGRWQEQHDLP-UHFFFAOYSA-N

>  <tags>  (703) 
fragmenstein_placed,CpKRS_FrAncestor_bulkdock_iter2

>  <ref_pdb>  (703) 
x0485c

>  <energy_score>  (703) 
-3.891825

>  <distance_score>  (703) 
0.384345

>  <HIPPO Pose ID>  (703) 
56301

>  <ref_mols>  (703) 
x0787b

>  <smiles>  (703) 
O=C(NCc1cn[nH]c1)c1ccc(F)s1

>  <HIPPO Compound ID>  (703) 
34392

>  <alias>  (703) 
FFJQGRWQEQHDLP-UHFFFAOYSA-N-P64

>  <subsites>  (703) 


>  <placement_batch>  (703) 
CpKRS_FrAncestor_bulkdock_iter2

>  <name>  (703) 
FFJQGRWQEQHDLP-UHFFFAOYSA-N-P64

$$$$
LOXVNDPRXOMFFY-UHFFFAOYSA-N-P64
     RDKit          3D

 16 17  0  0  0  0  0  0  0  0999 V2000
    5.6014  -14.3765   23.9072 O   0  0  0  0  0  0  0  0  0  0  0  0
    4.7568  -13.6220   24.1742 C   0  0  0  0  0  0  0  0  0  0  0  0
    4.3938  -12.2669   23.5415 N   0  0  0  0  0  0  0  0  0  0  0  0
    4.9330  -11.6014   22.3893 C   0  0  0  0  0  0  0  0  0  0  0  0
    5.1467  -10.1589   22.6618 C   0  0  0  0  0  0  0  0  0  0  0  0
    4.9678   -9.0823   21.7630 C   0  0  0  0  0  0  0  0  0  0  0  0
    5.2274   -7.8915   22.3096 N   0  0  0  0  0  0  0  0  0  0  0  0
    5.6969   -8.2059   23.5306 N   0  0  0  0  0  0  0  0  0  0  0  0
    5.6324   -9.5414   23.7943 C   0  0  0  0  0  0  0  0  0  0  0  0
    3.8059  -13.9607   25.2491 C   0  0  0  0  0  0  0  0  0  0  0  0
    2.4994  -13.5518   25.4734 C   0  0  0  0  0  0  0  0  0  0  0  0
    1.9039  -14.2079   26.5935 C   0  0  0  0  0  0  0  0  0  0  0  0
    0.2756  -13.9357   27.0387 Cl  0  0  0  0  0  0  0  0  0  0  0  0
    2.7835  -15.0664   27.1988 C   0  0  0  0  0  0  0  0  0  0  0  0
    2.5105  -16.0610   28.5760 Cl  0  0  0  0  0  0  0  0  0  0  0  0
    4.2870  -15.1251   26.4314 S   0  0  0  0  0  0  0  0  0  0  0  0
  1  2  2  0
  2  3  1  0
  3  4  1  0
  4  5  1  0
  5  6  1  0
  6  7  2  0
  7  8  1  0
  8  9  1  0
  2 10  1  0
 10 11  2  0
 11 12  1  0
 12 13  1  0
 12 14  2  0
 14 15  1  0
 14 16  1  0
  9  5  2  0
 16 10  1  0
M  END
>  <inchikey>  (704) 
LOXVNDPRXOMFFY-UHFFFAOYSA-N

>  <tags>  (704) 
fragmenstein_placed,CpKRS_FrAncestor_bulkdock_iter2

>  <ref_pdb>  (704) 
x0485c

>  <energy_score>  (704) 
-10.263003

>  <distance_score>  (704) 
0.403146

>  <HIPPO Pose ID>  (704) 
56303

>  <ref_mols>  (704) 
x0787b

>  <smiles>  (704) 
O=C(NCc1cn[nH]c1)c1cc(Cl)c(Cl)s1

>  <HIPPO Compound ID>  (704) 
34393

>  <alias>  (704) 
LOXVNDPRXOMFFY-UHFFFAOYSA-N-P64

>  <subsites>  (704) 


>  <placement_batch>  (704) 
CpKRS_FrAncestor_bulkdock_iter2

>  <name>  (704) 
LOXVNDPRXOMFFY-UHFFFAOYSA-N-P64

$$$$
CFUDAYMTWGDLNC-UHFFFAOYSA-N-P64
     RDKit          3D

 15 16  0  0  0  0  0  0  0  0999 V2000
    5.5587  -14.3769   23.9679 O   0  0  0  0  0  0  0  0  0  0  0  0
    4.7154  -13.6117   24.2109 C   0  0  0  0  0  0  0  0  0  0  0  0
    4.3751  -12.2600   23.5551 N   0  0  0  0  0  0  0  0  0  0  0  0
    4.9407  -11.6128   22.4052 C   0  0  0  0  0  0  0  0  0  0  0  0
    5.1434  -10.1660   22.6625 C   0  0  0  0  0  0  0  0  0  0  0  0
    4.9725   -9.0991   21.7509 C   0  0  0  0  0  0  0  0  0  0  0  0
    5.2202   -7.9017   22.2891 N   0  0  0  0  0  0  0  0  0  0  0  0
    5.6715   -8.2024   23.5207 N   0  0  0  0  0  0  0  0  0  0  0  0
    5.6095   -9.5352   23.7960 C   0  0  0  0  0  0  0  0  0  0  0  0
    3.7279  -13.9433   25.2597 C   0  0  0  0  0  0  0  0  0  0  0  0
    2.4219  -13.5212   25.4551 C   0  0  0  0  0  0  0  0  0  0  0  0
    1.7909  -14.1792   26.5504 C   0  0  0  0  0  0  0  0  0  0  0  0
    0.1555  -13.9115   26.9643 Cl  0  0  0  0  0  0  0  0  0  0  0  0
    2.6288  -15.0581   27.1892 C   0  0  0  0  0  0  0  0  0  0  0  0
    4.1653  -15.1171   26.4497 S   0  0  0  0  0  0  0  0  0  0  0  0
  1  2  2  0
  2  3  1  0
  3  4  1  0
  4  5  1  0
  5  6  1  0
  6  7  2  0
  7  8  1  0
  8  9  1  0
  2 10  1  0
 10 11  2  0
 11 12  1  0
 12 13  1  0
 12 14  2  0
 14 15  1  0
  9  5  2  0
 15 10  1  0
M  END
>  <inchikey>  (705) 
CFUDAYMTWGDLNC-UHFFFAOYSA-N

>  <tags>  (705) 
fragmenstein_placed,CpKRS_FrAncestor_bulkdock_iter2

>  <ref_pdb>  (705) 
x0485c

>  <energy_score>  (705) 
-12.44931

>  <distance_score>  (705) 
0.413701

>  <HIPPO Pose ID>  (705) 
56305

>  <ref_mols>  (705) 
x0787b

>  <smiles>  (705) 
O=C(NCc1cn[nH]c1)c1cc(Cl)cs1

>  <HIPPO Compound ID>  (705) 
34394

>  <alias>  (705) 
CFUDAYMTWGDLNC-UHFFFAOYSA-N-P64

>  <subsites>  (705) 


>  <placement_batch>  (705) 
CpKRS_FrAncestor_bulkdock_iter2

>  <name>  (705) 
CFUDAYMTWGDLNC-UHFFFAOYSA-N-P64

$$$$
GQEXVGLYNMKICC-UHFFFAOYSA-N-P64
     RDKit          3D

 16 17  0  0  0  0  0  0  0  0999 V2000
    5.6169  -14.3315   23.9523 O   0  0  0  0  0  0  0  0  0  0  0  0
    4.7516  -13.5895   24.1869 C   0  0  0  0  0  0  0  0  0  0  0  0
    4.3826  -12.2503   23.5295 N   0  0  0  0  0  0  0  0  0  0  0  0
    4.9412  -11.5882   22.3860 C   0  0  0  0  0  0  0  0  0  0  0  0
    5.1524  -10.1459   22.6603 C   0  0  0  0  0  0  0  0  0  0  0  0
    4.9752   -9.0688   21.7621 C   0  0  0  0  0  0  0  0  0  0  0  0
    5.2338   -7.8782   22.3099 N   0  0  0  0  0  0  0  0  0  0  0  0
    5.6904   -8.1931   23.5358 N   0  0  0  0  0  0  0  0  0  0  0  0
    5.6294   -9.5290   23.7967 C   0  0  0  0  0  0  0  0  0  0  0  0
    3.7950  -13.9413   25.2620 C   0  0  0  0  0  0  0  0  0  0  0  0
    4.2763  -15.2071   26.3478 S   0  0  0  0  0  0  0  0  0  0  0  0
    2.7878  -15.1904   27.1669 C   0  0  0  0  0  0  0  0  0  0  0  0
    1.9345  -14.2440   26.6567 C   0  0  0  0  0  0  0  0  0  0  0  0
    0.3348  -14.0294   27.2325 Cl  0  0  0  0  0  0  0  0  0  0  0  0
    2.5192  -13.4968   25.5818 C   0  0  0  0  0  0  0  0  0  0  0  0
    1.6430  -12.2486   24.7797 Cl  0  0  0  0  0  0  0  0  0  0  0  0
  1  2  2  0
  2  3  1  0
  3  4  1  0
  4  5  1  0
  5  6  1  0
  6  7  2  0
  7  8  1  0
  8  9  1  0
  2 10  1  0
 10 11  1  0
 11 12  1  0
 12 13  2  0
 13 14  1  0
 13 15  1  0
 15 16  1  0
  9  5  2  0
 15 10  2  0
M  END
>  <inchikey>  (706) 
GQEXVGLYNMKICC-UHFFFAOYSA-N

>  <tags>  (706) 
fragmenstein_placed,CpKRS_FrAncestor_bulkdock_iter2

>  <ref_pdb>  (706) 
x0485c

>  <energy_score>  (706) 
-8.575749

>  <distance_score>  (706) 
0.390603

>  <HIPPO Pose ID>  (706) 
56307

>  <ref_mols>  (706) 
x0787b

>  <smiles>  (706) 
O=C(NCc1cn[nH]c1)c1scc(Cl)c1Cl

>  <HIPPO Compound ID>  (706) 
34395

>  <alias>  (706) 
GQEXVGLYNMKICC-UHFFFAOYSA-N-P64

>  <subsites>  (706) 


>  <placement_batch>  (706) 
CpKRS_FrAncestor_bulkdock_iter2

>  <name>  (706) 
GQEXVGLYNMKICC-UHFFFAOYSA-N-P64

$$$$
SZFKZMSYDKXUFW-UHFFFAOYSA-N-P64
     RDKit          3D

 16 17  0  0  0  0  0  0  0  0999 V2000
    5.4962  -14.3641   23.9248 O   0  0  0  0  0  0  0  0  0  0  0  0
    4.6841  -13.5770   24.1984 C   0  0  0  0  0  0  0  0  0  0  0  0
    4.3668  -12.2129   23.5659 N   0  0  0  0  0  0  0  0  0  0  0  0
    4.9179  -11.5723   22.4066 C   0  0  0  0  0  0  0  0  0  0  0  0
    5.1491  -10.1302   22.6667 C   0  0  0  0  0  0  0  0  0  0  0  0
    4.9742   -9.0576   21.7630 C   0  0  0  0  0  0  0  0  0  0  0  0
    5.2475   -7.8660   22.3012 N   0  0  0  0  0  0  0  0  0  0  0  0
    5.7151   -8.1772   23.5238 N   0  0  0  0  0  0  0  0  0  0  0  0
    5.6438   -9.5106   23.7945 C   0  0  0  0  0  0  0  0  0  0  0  0
    3.7657  -13.8694   25.3230 C   0  0  0  0  0  0  0  0  0  0  0  0
    4.1700  -15.2278   26.3338 S   0  0  0  0  0  0  0  0  0  0  0  0
    2.8036  -15.0133   27.2903 C   0  0  0  0  0  0  0  0  0  0  0  0
    2.5026  -16.0735   28.6064 Cl  0  0  0  0  0  0  0  0  0  0  0  0
    2.0274  -13.9578   26.9027 C   0  0  0  0  0  0  0  0  0  0  0  0
    2.5807  -13.2954   25.7635 C   0  0  0  0  0  0  0  0  0  0  0  0
    1.7536  -11.9476   25.0947 Cl  0  0  0  0  0  0  0  0  0  0  0  0
  1  2  2  0
  2  3  1  0
  3  4  1  0
  4  5  1  0
  5  6  1  0
  6  7  2  0
  7  8  1  0
  8  9  1  0
  2 10  1  0
 10 11  1  0
 11 12  1  0
 12 13  1  0
 12 14  2  0
 14 15  1  0
 15 16  1  0
  9  5  2  0
 15 10  2  0
M  END
>  <inchikey>  (707) 
SZFKZMSYDKXUFW-UHFFFAOYSA-N

>  <tags>  (707) 
fragmenstein_placed,CpKRS_FrAncestor_bulkdock_iter2

>  <ref_pdb>  (707) 
x0485c

>  <energy_score>  (707) 
-11.167742

>  <distance_score>  (707) 
0.366944

>  <HIPPO Pose ID>  (707) 
56309

>  <ref_mols>  (707) 
x0787b

>  <smiles>  (707) 
O=C(NCc1cn[nH]c1)c1sc(Cl)cc1Cl

>  <HIPPO Compound ID>  (707) 
34396

>  <alias>  (707) 
SZFKZMSYDKXUFW-UHFFFAOYSA-N-P64

>  <subsites>  (707) 


>  <placement_batch>  (707) 
CpKRS_FrAncestor_bulkdock_iter2

>  <name>  (707) 
SZFKZMSYDKXUFW-UHFFFAOYSA-N-P64

$$$$
OLKQLZOLDRUEHR-UHFFFAOYSA-N-P48
     RDKit          3D

 12 12  0  0  0  0  0  0  0  0999 V2000
    5.5234  -13.2820   25.1056 O   0  0  0  0  0  0  0  0  0  0  0  0
    4.4393  -13.1374   24.7070 C   0  0  0  0  0  0  0  0  0  0  0  0
    3.9284  -12.4220   23.4428 N   0  0  0  0  0  0  0  0  0  0  0  0
    4.6496  -11.8168   22.3561 C   0  0  0  0  0  0  0  0  0  0  0  0
    4.9445  -10.3564   22.6514 C   0  0  0  0  0  0  0  0  0  0  0  0
    5.3038   -9.7229   21.5051 F   0  0  0  0  0  0  0  0  0  0  0  0
    3.2989  -13.6265   25.4799 C   0  0  0  0  0  0  0  0  0  0  0  0
    3.2770  -14.5361   26.5234 C   0  0  0  0  0  0  0  0  0  0  0  0
    2.0253  -14.8154   27.0585 N   0  0  0  0  0  0  0  0  0  0  0  0
    1.1351  -14.0863   26.4312 C   0  0  0  0  0  0  0  0  0  0  0  0
   -0.7457  -14.2131   26.7325 Br  0  0  0  0  0  0  0  0  0  0  0  0
    1.7077  -13.0370   25.2273 S   0  0  0  0  0  0  0  0  0  0  0  0
  1  2  2  0
  2  3  1  0
  3  4  1  0
  4  5  1  0
  5  6  1  0
  2  7  1  0
  7  8  2  0
  8  9  1  0
  9 10  2  0
 10 11  1  0
 10 12  1  0
 12  7  1  0
M  END
>  <inchikey>  (708) 
OLKQLZOLDRUEHR-UHFFFAOYSA-N

>  <tags>  (708) 
fragmenstein_placed,CpKRS_FrAncestor_bulkdock_iter2

>  <ref_pdb>  (708) 
x0485c

>  <energy_score>  (708) 
-7.624597

>  <distance_score>  (708) 
0.898919

>  <HIPPO Pose ID>  (708) 
56310

>  <ref_mols>  (708) 
x0504a

>  <smiles>  (708) 
O=C(NCCF)c1cnc(Br)s1

>  <HIPPO Compound ID>  (708) 
34397

>  <alias>  (708) 
OLKQLZOLDRUEHR-UHFFFAOYSA-N-P48

>  <subsites>  (708) 


>  <placement_batch>  (708) 
CpKRS_FrAncestor_bulkdock_iter2

>  <name>  (708) 
OLKQLZOLDRUEHR-UHFFFAOYSA-N-P48

$$$$
SYPIYPKLKWLZMH-UHFFFAOYSA-N-P49
     RDKit          3D

 12 12  0  0  0  0  0  0  0  0999 V2000
    5.3944  -13.7012   24.8341 O   0  0  0  0  0  0  0  0  0  0  0  0
    4.3558  -13.1936   24.6947 C   0  0  0  0  0  0  0  0  0  0  0  0
    3.9253  -12.0399   23.7702 N   0  0  0  0  0  0  0  0  0  0  0  0
    4.7019  -11.2062   22.8931 C   0  0  0  0  0  0  0  0  0  0  0  0
    4.7390   -9.7656   23.3828 C   0  0  0  0  0  0  0  0  0  0  0  0
    5.1941   -9.7083   24.6629 F   0  0  0  0  0  0  0  0  0  0  0  0
    3.2209  -13.6308   25.5059 C   0  0  0  0  0  0  0  0  0  0  0  0
    3.1823  -14.6428   26.4537 C   0  0  0  0  0  0  0  0  0  0  0  0
    1.9742  -14.8066   27.1193 N   0  0  0  0  0  0  0  0  0  0  0  0
    1.1481  -13.9033   26.6647 C   0  0  0  0  0  0  0  0  0  0  0  0
   -0.4627  -13.7337   27.2092 Cl  0  0  0  0  0  0  0  0  0  0  0  0
    1.6862  -12.8622   25.4520 S   0  0  0  0  0  0  0  0  0  0  0  0
  1  2  2  0
  2  3  1  0
  3  4  1  0
  4  5  1  0
  5  6  1  0
  2  7  1  0
  7  8  2  0
  8  9  1  0
  9 10  2  0
 10 11  1  0
 10 12  1  0
 12  7  1  0
M  END
>  <inchikey>  (709) 
SYPIYPKLKWLZMH-UHFFFAOYSA-N

>  <tags>  (709) 
fragmenstein_placed,CpKRS_FrAncestor_bulkdock_iter2

>  <ref_pdb>  (709) 
x0485c

>  <energy_score>  (709) 
-44.845043

>  <distance_score>  (709) 
0.737112

>  <HIPPO Pose ID>  (709) 
56314

>  <ref_mols>  (709) 
x0504b

>  <smiles>  (709) 
O=C(NCCF)c1cnc(Cl)s1

>  <HIPPO Compound ID>  (709) 
34398

>  <alias>  (709) 
SYPIYPKLKWLZMH-UHFFFAOYSA-N-P49

>  <subsites>  (709) 


>  <placement_batch>  (709) 
CpKRS_FrAncestor_bulkdock_iter2

>  <name>  (709) 
SYPIYPKLKWLZMH-UHFFFAOYSA-N-P49

$$$$
FIAHLDMQGYNSRC-UHFFFAOYSA-N-P47
     RDKit          3D

 11 11  0  0  0  0  0  0  0  0999 V2000
    3.5262    4.4265   42.6083 O   0  0  0  0  0  0  0  0  0  0  0  0
    3.0087    5.0325   43.4567 C   0  0  0  0  0  0  0  0  0  0  0  0
    2.4139    6.4473   43.4479 N   0  0  0  0  0  0  0  0  0  0  0  0
    2.2432    7.3842   42.3673 C   0  0  0  0  0  0  0  0  0  0  0  0
    3.5511    7.6376   41.6373 C   0  0  0  0  0  0  0  0  0  0  0  0
    4.4996    8.0101   42.5425 F   0  0  0  0  0  0  0  0  0  0  0  0
    2.9435    4.4570   44.7974 C   0  0  0  0  0  0  0  0  0  0  0  0
    3.5339    3.2803   45.2199 C   0  0  0  0  0  0  0  0  0  0  0  0
    3.3306    2.9381   46.5423 N   0  0  0  0  0  0  0  0  0  0  0  0
    2.5821    3.8590   47.1085 C   0  0  0  0  0  0  0  0  0  0  0  0
    2.1026    5.1649   46.1115 S   0  0  0  0  0  0  0  0  0  0  0  0
  1  2  2  0
  2  3  1  0
  3  4  1  0
  4  5  1  0
  5  6  1  0
  2  7  1  0
  7  8  2  0
  8  9  1  0
  9 10  2  0
 10 11  1  0
 11  7  1  0
M  END
>  <inchikey>  (710) 
FIAHLDMQGYNSRC-UHFFFAOYSA-N

>  <tags>  (710) 
fragmenstein_placed,CpKRS_FrAncestor_bulkdock_iter2

>  <ref_pdb>  (710) 
x0485c

>  <energy_score>  (710) 
-13.16363

>  <distance_score>  (710) 
0.354443

>  <HIPPO Pose ID>  (710) 
56318

>  <ref_mols>  (710) 
x0504c

>  <smiles>  (710) 
O=C(NCCF)c1cncs1

>  <HIPPO Compound ID>  (710) 
34399

>  <alias>  (710) 
FIAHLDMQGYNSRC-UHFFFAOYSA-N-P47

>  <subsites>  (710) 


>  <placement_batch>  (710) 
CpKRS_FrAncestor_bulkdock_iter2

>  <name>  (710) 
FIAHLDMQGYNSRC-UHFFFAOYSA-N-P47

$$$$
HMKUXHSHUFQCBX-UHFFFAOYSA-N-P49
     RDKit          3D

 12 12  0  0  0  0  0  0  0  0999 V2000
    4.7431  -13.5181   24.3368 O   0  0  0  0  0  0  0  0  0  0  0  0
    3.7681  -13.0381   24.7507 C   0  0  0  0  0  0  0  0  0  0  0  0
    3.0964  -11.7018   24.4115 N   0  0  0  0  0  0  0  0  0  0  0  0
    3.4299  -10.7131   23.4220 C   0  0  0  0  0  0  0  0  0  0  0  0
    4.7962  -10.0898   23.6723 C   0  0  0  0  0  0  0  0  0  0  0  0
    4.7440   -9.3327   24.8040 F   0  0  0  0  0  0  0  0  0  0  0  0
    2.9375  -13.7059   25.7775 C   0  0  0  0  0  0  0  0  0  0  0  0
    1.6906  -13.1523   26.1437 N   0  0  0  0  0  0  0  0  0  0  0  0
    1.1659  -13.8687   27.1110 C   0  0  0  0  0  0  0  0  0  0  0  0
    2.0388  -15.2507   27.6044 S   0  0  0  0  0  0  0  0  0  0  0  0
    3.2521  -14.8553   26.4757 C   0  0  0  0  0  0  0  0  0  0  0  0
    4.8234  -15.9159   26.3011 Br  0  0  0  0  0  0  0  0  0  0  0  0
  1  2  2  0
  2  3  1  0
  3  4  1  0
  4  5  1  0
  5  6  1  0
  2  7  1  0
  7  8  1  0
  8  9  2  0
  9 10  1  0
 10 11  1  0
 11 12  1  0
 11  7  2  0
M  END
>  <inchikey>  (711) 
HMKUXHSHUFQCBX-UHFFFAOYSA-N

>  <tags>  (711) 
fragmenstein_placed,CpKRS_FrAncestor_bulkdock_iter2

>  <ref_pdb>  (711) 
x0485c

>  <energy_score>  (711) 
-67.6424

>  <distance_score>  (711) 
0.43023

>  <HIPPO Pose ID>  (711) 
56320

>  <ref_mols>  (711) 
x0504b

>  <smiles>  (711) 
O=C(NCCF)c1ncsc1Br

>  <HIPPO Compound ID>  (711) 
34400

>  <alias>  (711) 
HMKUXHSHUFQCBX-UHFFFAOYSA-N-P49

>  <subsites>  (711) 


>  <placement_batch>  (711) 
CpKRS_FrAncestor_bulkdock_iter2

>  <name>  (711) 
HMKUXHSHUFQCBX-UHFFFAOYSA-N-P49

$$$$
DUORBUAPJWGCJG-UHFFFAOYSA-N-P47
     RDKit          3D

 15 15  0  0  0  0  0  0  0  0999 V2000
    3.5000    4.6611   42.3819 O   0  0  0  0  0  0  0  0  0  0  0  0
    2.9855    5.1590   43.2969 C   0  0  0  0  0  0  0  0  0  0  0  0
    2.2991    6.5179   43.4297 N   0  0  0  0  0  0  0  0  0  0  0  0
    2.1790    7.6024   42.4887 C   0  0  0  0  0  0  0  0  0  0  0  0
    3.4723    7.8489   41.7295 C   0  0  0  0  0  0  0  0  0  0  0  0
    4.4928    7.9929   42.6205 F   0  0  0  0  0  0  0  0  0  0  0  0
    2.9686    4.4950   44.6116 C   0  0  0  0  0  0  0  0  0  0  0  0
    2.3083    5.0754   45.7034 N   0  0  0  0  0  0  0  0  0  0  0  0
    2.4173    4.2976   46.7550 C   0  0  0  0  0  0  0  0  0  0  0  0
    3.3377    2.8818   46.5297 S   0  0  0  0  0  0  0  0  0  0  0  0
    3.5909    3.2886   44.8865 C   0  0  0  0  0  0  0  0  0  0  0  0
    4.3486    2.4001   43.9659 C   0  0  0  0  0  0  0  0  0  0  0  0
    4.8190    1.2844   44.5927 F   0  0  0  0  0  0  0  0  0  0  0  0
    5.4379    3.0061   43.4346 F   0  0  0  0  0  0  0  0  0  0  0  0
    3.5753    1.9512   42.9490 F   0  0  0  0  0  0  0  0  0  0  0  0
  1  2  2  0
  2  3  1  0
  3  4  1  0
  4  5  1  0
  5  6  1  0
  2  7  1  0
  7  8  1  0
  8  9  2  0
  9 10  1  0
 10 11  1  0
 11 12  1  0
 12 13  1  0
 12 14  1  0
 12 15  1  0
 11  7  2  0
M  END
>  <inchikey>  (712) 
DUORBUAPJWGCJG-UHFFFAOYSA-N

>  <tags>  (712) 
fragmenstein_placed,CpKRS_FrAncestor_bulkdock_iter2

>  <ref_pdb>  (712) 
x0485c

>  <energy_score>  (712) 
-55.065315

>  <distance_score>  (712) 
0.404166

>  <HIPPO Pose ID>  (712) 
56324

>  <ref_mols>  (712) 
x0504c

>  <smiles>  (712) 
O=C(NCCF)c1ncsc1C(F)(F)F

>  <HIPPO Compound ID>  (712) 
34401

>  <alias>  (712) 
DUORBUAPJWGCJG-UHFFFAOYSA-N-P47

>  <subsites>  (712) 


>  <placement_batch>  (712) 
CpKRS_FrAncestor_bulkdock_iter2

>  <name>  (712) 
DUORBUAPJWGCJG-UHFFFAOYSA-N-P47

$$$$
ACFPCMBJXPGFPF-UHFFFAOYSA-N-P47
     RDKit          3D

 12 12  0  0  0  0  0  0  0  0999 V2000
    3.4267    4.7995   42.3962 O   0  0  0  0  0  0  0  0  0  0  0  0
    2.9306    5.2774   43.3329 C   0  0  0  0  0  0  0  0  0  0  0  0
    2.2731    6.6480   43.5178 N   0  0  0  0  0  0  0  0  0  0  0  0
    2.1679    7.7656   42.6144 C   0  0  0  0  0  0  0  0  0  0  0  0
    3.4267    7.9540   41.7832 C   0  0  0  0  0  0  0  0  0  0  0  0
    4.5058    8.0112   42.6127 F   0  0  0  0  0  0  0  0  0  0  0  0
    2.9094    4.5819   44.6302 C   0  0  0  0  0  0  0  0  0  0  0  0
    2.2369    5.1351   45.7367 N   0  0  0  0  0  0  0  0  0  0  0  0
    2.3537    4.3324   46.7717 C   0  0  0  0  0  0  0  0  0  0  0  0
    3.2945    2.9295   46.5228 S   0  0  0  0  0  0  0  0  0  0  0  0
    3.5347    3.3861   44.9080 C   0  0  0  0  0  0  0  0  0  0  0  0
    4.4659    2.3629   43.8912 Cl  0  0  0  0  0  0  0  0  0  0  0  0
  1  2  2  0
  2  3  1  0
  3  4  1  0
  4  5  1  0
  5  6  1  0
  2  7  1  0
  7  8  1  0
  8  9  2  0
  9 10  1  0
 10 11  1  0
 11 12  1  0
 11  7  2  0
M  END
>  <inchikey>  (713) 
ACFPCMBJXPGFPF-UHFFFAOYSA-N

>  <tags>  (713) 
fragmenstein_placed,CpKRS_FrAncestor_bulkdock_iter2

>  <ref_pdb>  (713) 
x0485c

>  <energy_score>  (713) 
-62.017217

>  <distance_score>  (713) 
0.479014

>  <HIPPO Pose ID>  (713) 
56327

>  <ref_mols>  (713) 
x0504c

>  <smiles>  (713) 
O=C(NCCF)c1ncsc1Cl

>  <HIPPO Compound ID>  (713) 
34402

>  <alias>  (713) 
ACFPCMBJXPGFPF-UHFFFAOYSA-N-P47

>  <subsites>  (713) 


>  <placement_batch>  (713) 
CpKRS_FrAncestor_bulkdock_iter2

>  <name>  (713) 
ACFPCMBJXPGFPF-UHFFFAOYSA-N-P47

$$$$
PEFNDYLRNHXWHW-UHFFFAOYSA-N-P49
     RDKit          3D

 13 13  0  0  0  0  0  0  0  0999 V2000
    5.3758  -13.7709   24.5939 O   0  0  0  0  0  0  0  0  0  0  0  0
    4.3631  -13.1983   24.5829 C   0  0  0  0  0  0  0  0  0  0  0  0
    3.9253  -11.9617   23.7766 N   0  0  0  0  0  0  0  0  0  0  0  0
    4.6727  -11.1139   22.8856 C   0  0  0  0  0  0  0  0  0  0  0  0
    5.3539   -9.9898   23.6504 C   0  0  0  0  0  0  0  0  0  0  0  0
    4.4139   -9.2509   24.3043 F   0  0  0  0  0  0  0  0  0  0  0  0
    3.2684  -13.6357   25.4558 C   0  0  0  0  0  0  0  0  0  0  0  0
    1.7563  -12.8087   25.5000 S   0  0  0  0  0  0  0  0  0  0  0  0
    1.2334  -13.8670   26.6982 C   0  0  0  0  0  0  0  0  0  0  0  0
   -0.3450  -13.6676   27.3213 Cl  0  0  0  0  0  0  0  0  0  0  0  0
    2.0401  -14.8151   27.0804 N   0  0  0  0  0  0  0  0  0  0  0  0
    3.2291  -14.6851   26.3685 C   0  0  0  0  0  0  0  0  0  0  0  0
    4.4872  -15.8066   26.6790 Cl  0  0  0  0  0  0  0  0  0  0  0  0
  1  2  2  0
  2  3  1  0
  3  4  1  0
  4  5  1  0
  5  6  1  0
  2  7  1  0
  7  8  1  0
  8  9  1  0
  9 10  1  0
  9 11  2  0
 11 12  1  0
 12 13  1  0
 12  7  2  0
M  END
>  <inchikey>  (714) 
PEFNDYLRNHXWHW-UHFFFAOYSA-N

>  <tags>  (714) 
fragmenstein_placed,CpKRS_FrAncestor_bulkdock_iter2

>  <ref_pdb>  (714) 
x0485c

>  <energy_score>  (714) 
-22.6929

>  <distance_score>  (714) 
0.62362

>  <HIPPO Pose ID>  (714) 
56329

>  <ref_mols>  (714) 
x0504b

>  <smiles>  (714) 
O=C(NCCF)c1sc(Cl)nc1Cl

>  <HIPPO Compound ID>  (714) 
34403

>  <alias>  (714) 
PEFNDYLRNHXWHW-UHFFFAOYSA-N-P49

>  <subsites>  (714) 


>  <placement_batch>  (714) 
CpKRS_FrAncestor_bulkdock_iter2

>  <name>  (714) 
PEFNDYLRNHXWHW-UHFFFAOYSA-N-P49

$$$$
XNMKGAJUBZRZED-UHFFFAOYSA-N-P49
     RDKit          3D

 12 12  0  0  0  0  0  0  0  0999 V2000
    4.5760  -13.6925   24.1131 O   0  0  0  0  0  0  0  0  0  0  0  0
    3.7054  -13.0839   24.5875 C   0  0  0  0  0  0  0  0  0  0  0  0
    3.2162  -11.6547   24.2992 N   0  0  0  0  0  0  0  0  0  0  0  0
    3.6347  -10.7072   23.3007 C   0  0  0  0  0  0  0  0  0  0  0  0
    4.9459  -10.0413   23.6849 C   0  0  0  0  0  0  0  0  0  0  0  0
    4.7441   -9.2750   24.7940 F   0  0  0  0  0  0  0  0  0  0  0  0
    2.9166  -13.6712   25.6771 C   0  0  0  0  0  0  0  0  0  0  0  0
    1.3813  -13.0376   26.1527 S   0  0  0  0  0  0  0  0  0  0  0  0
    1.2923  -14.2033   27.3948 C   0  0  0  0  0  0  0  0  0  0  0  0
    2.2696  -15.0699   27.4521 N   0  0  0  0  0  0  0  0  0  0  0  0
    3.2021  -14.7672   26.4753 C   0  0  0  0  0  0  0  0  0  0  0  0
    4.7614  -15.8396   26.3655 Br  0  0  0  0  0  0  0  0  0  0  0  0
  1  2  2  0
  2  3  1  0
  3  4  1  0
  4  5  1  0
  5  6  1  0
  2  7  1  0
  7  8  1  0
  8  9  1  0
  9 10  2  0
 10 11  1  0
 11 12  1  0
 11  7  2  0
M  END
>  <inchikey>  (715) 
XNMKGAJUBZRZED-UHFFFAOYSA-N

>  <tags>  (715) 
fragmenstein_placed,CpKRS_FrAncestor_bulkdock_iter2

>  <ref_pdb>  (715) 
x0485c

>  <energy_score>  (715) 
-14.532673

>  <distance_score>  (715) 
0.411743

>  <HIPPO Pose ID>  (715) 
56332

>  <ref_mols>  (715) 
x0504b

>  <smiles>  (715) 
O=C(NCCF)c1scnc1Br

>  <HIPPO Compound ID>  (715) 
34404

>  <alias>  (715) 
XNMKGAJUBZRZED-UHFFFAOYSA-N-P49

>  <subsites>  (715) 


>  <placement_batch>  (715) 
CpKRS_FrAncestor_bulkdock_iter2

>  <name>  (715) 
XNMKGAJUBZRZED-UHFFFAOYSA-N-P49

$$$$
ZURDNKAZOSHQBG-UHFFFAOYSA-N-P47
     RDKit          3D

 15 15  0  0  0  0  0  0  0  0999 V2000
    3.3329    4.5244   42.4199 O   0  0  0  0  0  0  0  0  0  0  0  0
    2.9148    5.1124   43.3304 C   0  0  0  0  0  0  0  0  0  0  0  0
    2.3241    6.5233   43.4148 N   0  0  0  0  0  0  0  0  0  0  0  0
    2.2079    7.5518   42.4111 C   0  0  0  0  0  0  0  0  0  0  0  0
    3.5234    7.7769   41.6852 C   0  0  0  0  0  0  0  0  0  0  0  0
    4.5014    8.0043   42.6067 F   0  0  0  0  0  0  0  0  0  0  0  0
    2.9523    4.4796   44.6505 C   0  0  0  0  0  0  0  0  0  0  0  0
    2.1890    5.1508   46.0334 S   0  0  0  0  0  0  0  0  0  0  0  0
    2.7068    3.8204   46.9664 C   0  0  0  0  0  0  0  0  0  0  0  0
    3.4253    2.9196   46.3371 N   0  0  0  0  0  0  0  0  0  0  0  0
    3.5719    3.2783   44.9860 C   0  0  0  0  0  0  0  0  0  0  0  0
    4.3319    2.3828   44.0353 C   0  0  0  0  0  0  0  0  0  0  0  0
    3.5483    1.9114   43.0342 F   0  0  0  0  0  0  0  0  0  0  0  0
    4.8337    1.2826   44.6645 F   0  0  0  0  0  0  0  0  0  0  0  0
    5.3977    3.0098   43.4779 F   0  0  0  0  0  0  0  0  0  0  0  0
  1  2  2  0
  2  3  1  0
  3  4  1  0
  4  5  1  0
  5  6  1  0
  2  7  1  0
  7  8  1  0
  8  9  1  0
  9 10  2  0
 10 11  1  0
 11 12  1  0
 12 13  1  0
 12 14  1  0
 12 15  1  0
 11  7  2  0
M  END
>  <inchikey>  (716) 
ZURDNKAZOSHQBG-UHFFFAOYSA-N

>  <tags>  (716) 
fragmenstein_placed,CpKRS_FrAncestor_bulkdock_iter2

>  <ref_pdb>  (716) 
x0485c

>  <energy_score>  (716) 
-35.900399

>  <distance_score>  (716) 
0.294743

>  <HIPPO Pose ID>  (716) 
56336

>  <ref_mols>  (716) 
x0504c

>  <smiles>  (716) 
O=C(NCCF)c1scnc1C(F)(F)F

>  <HIPPO Compound ID>  (716) 
34405

>  <alias>  (716) 
ZURDNKAZOSHQBG-UHFFFAOYSA-N-P47

>  <subsites>  (716) 


>  <placement_batch>  (716) 
CpKRS_FrAncestor_bulkdock_iter2

>  <name>  (716) 
ZURDNKAZOSHQBG-UHFFFAOYSA-N-P47

$$$$
UPGMZAPDFUOJKE-UHFFFAOYSA-N-P49
     RDKit          3D

 12 12  0  0  0  0  0  0  0  0999 V2000
    4.7866  -13.8297   24.1757 O   0  0  0  0  0  0  0  0  0  0  0  0
    3.8703  -13.2426   24.5875 C   0  0  0  0  0  0  0  0  0  0  0  0
    3.2833  -11.8851   24.1627 N   0  0  0  0  0  0  0  0  0  0  0  0
    3.7571  -10.9194   23.2044 C   0  0  0  0  0  0  0  0  0  0  0  0
    4.9575  -10.1450   23.7248 C   0  0  0  0  0  0  0  0  0  0  0  0
    4.5679   -9.3717   24.7768 F   0  0  0  0  0  0  0  0  0  0  0  0
    3.0819  -13.8115   25.6880 C   0  0  0  0  0  0  0  0  0  0  0  0
    1.5296  -13.2023   26.1352 S   0  0  0  0  0  0  0  0  0  0  0  0
    1.4509  -14.3469   27.3968 C   0  0  0  0  0  0  0  0  0  0  0  0
    2.4535  -15.1812   27.4869 N   0  0  0  0  0  0  0  0  0  0  0  0
    3.3957  -14.8832   26.5123 C   0  0  0  0  0  0  0  0  0  0  0  0
    4.8174  -15.8353   26.4471 Cl  0  0  0  0  0  0  0  0  0  0  0  0
  1  2  2  0
  2  3  1  0
  3  4  1  0
  4  5  1  0
  5  6  1  0
  2  7  1  0
  7  8  1  0
  8  9  1  0
  9 10  2  0
 10 11  1  0
 11 12  1  0
 11  7  2  0
M  END
>  <inchikey>  (717) 
UPGMZAPDFUOJKE-UHFFFAOYSA-N

>  <tags>  (717) 
fragmenstein_placed,CpKRS_FrAncestor_bulkdock_iter2

>  <ref_pdb>  (717) 
x0485c

>  <energy_score>  (717) 
-23.91634

>  <distance_score>  (717) 
0.350187

>  <HIPPO Pose ID>  (717) 
56338

>  <ref_mols>  (717) 
x0504b

>  <smiles>  (717) 
O=C(NCCF)c1scnc1Cl

>  <HIPPO Compound ID>  (717) 
34406

>  <alias>  (717) 
UPGMZAPDFUOJKE-UHFFFAOYSA-N-P49

>  <subsites>  (717) 


>  <placement_batch>  (717) 
CpKRS_FrAncestor_bulkdock_iter2

>  <name>  (717) 
UPGMZAPDFUOJKE-UHFFFAOYSA-N-P49

$$$$
ZALMLVKUOLCAEU-UHFFFAOYSA-N-P47
     RDKit          3D

 15 15  0  0  0  0  0  0  0  0999 V2000
    3.6352    4.5404   42.5985 O   0  0  0  0  0  0  0  0  0  0  0  0
    3.0303    5.0817   43.4327 C   0  0  0  0  0  0  0  0  0  0  0  0
    2.2688    6.4147   43.4038 N   0  0  0  0  0  0  0  0  0  0  0  0
    2.1676    7.4153   42.3677 C   0  0  0  0  0  0  0  0  0  0  0  0
    3.5111    7.7041   41.7140 C   0  0  2  0  0  0  0  0  0  0  0  0
    4.4341    7.9380   42.6976 F   0  0  0  0  0  0  0  0  0  0  0  0
    3.4042    8.9078   40.8035 C   0  0  0  0  0  0  0  0  0  0  0  0
    2.5082    8.6934   39.8103 F   0  0  0  0  0  0  0  0  0  0  0  0
    3.0045   10.0180   41.4652 F   0  0  0  0  0  0  0  0  0  0  0  0
    4.5885    9.1932   40.2176 F   0  0  0  0  0  0  0  0  0  0  0  0
    2.9537    4.4762   44.7607 C   0  0  0  0  0  0  0  0  0  0  0  0
    3.5564    3.3007   45.1700 C   0  0  0  0  0  0  0  0  0  0  0  0
    3.3522    2.9385   46.4874 N   0  0  0  0  0  0  0  0  0  0  0  0
    2.5945    3.8442   47.0655 C   0  0  0  0  0  0  0  0  0  0  0  0
    2.1016    5.1563   46.0837 S   0  0  0  0  0  0  0  0  0  0  0  0
  1  2  2  0
  2  3  1  0
  3  4  1  0
  4  5  1  0
  5  6  1  1
  5  7  1  0
  7  8  1  0
  7  9  1  0
  7 10  1  0
  2 11  1  0
 11 12  2  0
 12 13  1  0
 13 14  2  0
 14 15  1  0
 15 11  1  0
M  END
>  <inchikey>  (718) 
ZALMLVKUOLCAEU-UHFFFAOYSA-N

>  <tags>  (718) 
fragmenstein_placed,CpKRS_FrAncestor_bulkdock_iter2

>  <ref_pdb>  (718) 
x0485c

>  <energy_score>  (718) 
-65.334381

>  <distance_score>  (718) 
0.337873

>  <HIPPO Pose ID>  (718) 
56342

>  <ref_mols>  (718) 
x0504c

>  <smiles>  (718) 
O=C(NCC(F)C(F)(F)F)c1cncs1

>  <HIPPO Compound ID>  (718) 
34407

>  <alias>  (718) 
ZALMLVKUOLCAEU-UHFFFAOYSA-N-P47

>  <subsites>  (718) 


>  <placement_batch>  (718) 
CpKRS_FrAncestor_bulkdock_iter2

>  <name>  (718) 
ZALMLVKUOLCAEU-UHFFFAOYSA-N-P47

$$$$
XGQWSRSDDBOVAM-UHFFFAOYSA-N-P49
     RDKit          3D

 16 16  0  0  0  0  0  0  0  0999 V2000
    4.8314  -13.8133   24.2331 O   0  0  0  0  0  0  0  0  0  0  0  0
    3.8874  -13.2705   24.6416 C   0  0  0  0  0  0  0  0  0  0  0  0
    3.2327  -11.9492   24.2079 N   0  0  0  0  0  0  0  0  0  0  0  0
    3.6563  -10.9670   23.2406 C   0  0  0  0  0  0  0  0  0  0  0  0
    4.7903  -10.0858   23.7534 C   0  0  2  0  0  0  0  0  0  0  0  0
    4.4097   -9.5466   24.9531 F   0  0  0  0  0  0  0  0  0  0  0  0
    5.0436   -8.9722   22.7587 C   0  0  0  0  0  0  0  0  0  0  0  0
    5.9785   -8.1004   23.1934 F   0  0  0  0  0  0  0  0  0  0  0  0
    5.4479   -9.4503   21.5615 F   0  0  0  0  0  0  0  0  0  0  0  0
    3.9016   -8.2673   22.5350 F   0  0  0  0  0  0  0  0  0  0  0  0
    3.1173  -13.8710   25.7397 C   0  0  0  0  0  0  0  0  0  0  0  0
    1.5554  -13.2995   26.2086 S   0  0  0  0  0  0  0  0  0  0  0  0
    1.5090  -14.4632   27.4542 C   0  0  0  0  0  0  0  0  0  0  0  0
    2.5302  -15.2765   27.5247 N   0  0  0  0  0  0  0  0  0  0  0  0
    3.4571  -14.9475   26.5459 C   0  0  0  0  0  0  0  0  0  0  0  0
    4.8922  -15.8732   26.4479 Cl  0  0  0  0  0  0  0  0  0  0  0  0
  1  2  2  0
  2  3  1  0
  3  4  1  0
  4  5  1  0
  5  6  1  1
  5  7  1  0
  7  8  1  0
  7  9  1  0
  7 10  1  0
  2 11  1  0
 11 12  1  0
 12 13  1  0
 13 14  2  0
 14 15  1  0
 15 16  1  0
 15 11  2  0
M  END
>  <inchikey>  (719) 
XGQWSRSDDBOVAM-UHFFFAOYSA-N

>  <tags>  (719) 
fragmenstein_placed,CpKRS_FrAncestor_bulkdock_iter2

>  <ref_pdb>  (719) 
x0485c

>  <energy_score>  (719) 
-51.14158

>  <distance_score>  (719) 
0.334964

>  <HIPPO Pose ID>  (719) 
56344

>  <ref_mols>  (719) 
x0504b

>  <smiles>  (719) 
O=C(NCC(F)C(F)(F)F)c1scnc1Cl

>  <HIPPO Compound ID>  (719) 
34408

>  <alias>  (719) 
XGQWSRSDDBOVAM-UHFFFAOYSA-N-P49

>  <subsites>  (719) 


>  <placement_batch>  (719) 
CpKRS_FrAncestor_bulkdock_iter2

>  <name>  (719) 
XGQWSRSDDBOVAM-UHFFFAOYSA-N-P49

$$$$
FHLVYAJGWNPMHV-UHFFFAOYSA-N-P49
     RDKit          3D

 13 13  0  0  0  0  0  0  0  0999 V2000
    5.3904  -13.3855   24.9408 O   0  0  0  0  0  0  0  0  0  0  0  0
    4.3252  -13.0184   24.6497 C   0  0  0  0  0  0  0  0  0  0  0  0
    3.8800  -11.9726   23.6130 N   0  0  0  0  0  0  0  0  0  0  0  0
    4.6572  -11.0888   22.7820 C   0  0  0  0  0  0  0  0  0  0  0  0
    5.3139   -9.9480   23.5626 C   0  0  1  0  0  0  0  0  0  0  0  0
    5.8237   -9.0477   22.6807 F   0  0  0  0  0  0  0  0  0  0  0  0
    4.1570   -9.0850   24.6045 Cl  0  0  0  0  0  0  0  0  0  0  0  0
    3.1544  -13.5263   25.3668 C   0  0  0  0  0  0  0  0  0  0  0  0
    3.0879  -14.5135   26.3377 C   0  0  0  0  0  0  0  0  0  0  0  0
    1.8243  -14.7657   26.8632 N   0  0  0  0  0  0  0  0  0  0  0  0
    0.9724  -13.9591   26.2827 C   0  0  0  0  0  0  0  0  0  0  0  0
   -0.9092  -13.9945   26.6147 Br  0  0  0  0  0  0  0  0  0  0  0  0
    1.5879  -12.8621   25.1492 S   0  0  0  0  0  0  0  0  0  0  0  0
  1  2  2  0
  2  3  1  0
  3  4  1  0
  4  5  1  0
  5  6  1  6
  5  7  1  0
  2  8  1  0
  8  9  2  0
  9 10  1  0
 10 11  2  0
 11 12  1  0
 11 13  1  0
 13  8  1  0
M  END
>  <inchikey>  (720) 
FHLVYAJGWNPMHV-UHFFFAOYSA-N

>  <tags>  (720) 
fragmenstein_placed,CpKRS_FrAncestor_bulkdock_iter2

>  <ref_pdb>  (720) 
x0485c

>  <energy_score>  (720) 
-54.159271

>  <distance_score>  (720) 
0.781154

>  <HIPPO Pose ID>  (720) 
56347

>  <ref_mols>  (720) 
x0504b

>  <smiles>  (720) 
O=C(NCC(F)Cl)c1cnc(Br)s1

>  <HIPPO Compound ID>  (720) 
34409

>  <alias>  (720) 
FHLVYAJGWNPMHV-UHFFFAOYSA-N-P49

>  <subsites>  (720) 


>  <placement_batch>  (720) 
CpKRS_FrAncestor_bulkdock_iter2

>  <name>  (720) 
FHLVYAJGWNPMHV-UHFFFAOYSA-N-P49

$$$$
IMXKRKBHLOGMLF-UHFFFAOYSA-N-P48
     RDKit          3D

 13 13  0  0  0  0  0  0  0  0999 V2000
    5.5590  -13.4024   25.1426 O   0  0  0  0  0  0  0  0  0  0  0  0
    4.4622  -13.2599   24.7804 C   0  0  0  0  0  0  0  0  0  0  0  0
    3.9087  -12.5529   23.5305 N   0  0  0  0  0  0  0  0  0  0  0  0
    4.5844  -11.7882   22.5090 C   0  0  0  0  0  0  0  0  0  0  0  0
    4.4473  -10.2857   22.7478 C   0  0  1  0  0  0  0  0  0  0  0  0
    4.9467   -9.9327   23.9605 F   0  0  0  0  0  0  0  0  0  0  0  0
    5.2785   -9.3478   21.5014 Cl  0  0  0  0  0  0  0  0  0  0  0  0
    3.3532  -13.7458   25.5973 C   0  0  0  0  0  0  0  0  0  0  0  0
    3.3834  -14.6504   26.6459 C   0  0  0  0  0  0  0  0  0  0  0  0
    2.1651  -14.9109   27.2577 N   0  0  0  0  0  0  0  0  0  0  0  0
    1.2569  -14.1714   26.6760 C   0  0  0  0  0  0  0  0  0  0  0  0
   -0.4049  -14.2175   27.0624 Cl  0  0  0  0  0  0  0  0  0  0  0  0
    1.7485  -13.1598   25.4149 S   0  0  0  0  0  0  0  0  0  0  0  0
  1  2  2  0
  2  3  1  0
  3  4  1  0
  4  5  1  0
  5  6  1  1
  5  7  1  0
  2  8  1  0
  8  9  2  0
  9 10  1  0
 10 11  2  0
 11 12  1  0
 11 13  1  0
 13  8  1  0
M  END
>  <inchikey>  (721) 
IMXKRKBHLOGMLF-UHFFFAOYSA-N

>  <tags>  (721) 
fragmenstein_placed,CpKRS_FrAncestor_bulkdock_iter2

>  <ref_pdb>  (721) 
x0485c

>  <energy_score>  (721) 
-60.615249

>  <distance_score>  (721) 
0.596954

>  <HIPPO Pose ID>  (721) 
56349

>  <ref_mols>  (721) 
x0504a

>  <smiles>  (721) 
O=C(NCC(F)Cl)c1cnc(Cl)s1

>  <HIPPO Compound ID>  (721) 
34410

>  <alias>  (721) 
IMXKRKBHLOGMLF-UHFFFAOYSA-N-P48

>  <subsites>  (721) 


>  <placement_batch>  (721) 
CpKRS_FrAncestor_bulkdock_iter2

>  <name>  (721) 
IMXKRKBHLOGMLF-UHFFFAOYSA-N-P48

$$$$
VMMBNMVIKJZMIO-UHFFFAOYSA-N-P48
     RDKit          3D

 12 12  0  0  0  0  0  0  0  0999 V2000
    5.1289  -13.5651   24.9416 O   0  0  0  0  0  0  0  0  0  0  0  0
    4.0015  -13.2756   24.9482 C   0  0  0  0  0  0  0  0  0  0  0  0
    3.1965  -12.3845   23.9887 N   0  0  0  0  0  0  0  0  0  0  0  0
    3.6286  -11.5820   22.8684 C   0  0  0  0  0  0  0  0  0  0  0  0
    4.6994  -10.5452   23.2091 C   0  0  2  0  0  0  0  0  0  0  0  0
    4.1562   -9.5960   24.0254 F   0  0  0  0  0  0  0  0  0  0  0  0
    5.2543   -9.7142   21.7363 Cl  0  0  0  0  0  0  0  0  0  0  0  0
    3.1104  -13.8537   25.9599 C   0  0  0  0  0  0  0  0  0  0  0  0
    3.4244  -14.8189   26.9002 C   0  0  0  0  0  0  0  0  0  0  0  0
    2.4093  -15.1755   27.7719 N   0  0  0  0  0  0  0  0  0  0  0  0
    1.3344  -14.4766   27.4892 C   0  0  0  0  0  0  0  0  0  0  0  0
    1.4652  -13.3969   26.1671 S   0  0  0  0  0  0  0  0  0  0  0  0
  1  2  2  0
  2  3  1  0
  3  4  1  0
  4  5  1  0
  5  6  1  1
  5  7  1  0
  2  8  1  0
  8  9  2  0
  9 10  1  0
 10 11  2  0
 11 12  1  0
 12  8  1  0
M  END
>  <inchikey>  (722) 
VMMBNMVIKJZMIO-UHFFFAOYSA-N

>  <tags>  (722) 
fragmenstein_placed,CpKRS_FrAncestor_bulkdock_iter2

>  <ref_pdb>  (722) 
x0485c

>  <energy_score>  (722) 
-53.677625

>  <distance_score>  (722) 
0.367541

>  <HIPPO Pose ID>  (722) 
56352

>  <ref_mols>  (722) 
x0504a

>  <smiles>  (722) 
O=C(NCC(F)Cl)c1cncs1

>  <HIPPO Compound ID>  (722) 
34411

>  <alias>  (722) 
VMMBNMVIKJZMIO-UHFFFAOYSA-N-P48

>  <subsites>  (722) 


>  <placement_batch>  (722) 
CpKRS_FrAncestor_bulkdock_iter2

>  <name>  (722) 
VMMBNMVIKJZMIO-UHFFFAOYSA-N-P48

$$$$
ZMQCOOLFFQJEPY-UHFFFAOYSA-N-P49
     RDKit          3D

 13 13  0  0  0  0  0  0  0  0999 V2000
    4.9169  -13.3335   24.4702 O   0  0  0  0  0  0  0  0  0  0  0  0
    3.8531  -12.9465   24.7346 C   0  0  0  0  0  0  0  0  0  0  0  0
    3.0948  -11.7089   24.2407 N   0  0  0  0  0  0  0  0  0  0  0  0
    3.4472  -10.7313   23.2415 C   0  0  0  0  0  0  0  0  0  0  0  0
    4.7646   -9.9985   23.5099 C   0  0  1  0  0  0  0  0  0  0  0  0
    5.0240   -9.1664   22.4637 F   0  0  0  0  0  0  0  0  0  0  0  0
    4.6648   -8.9933   24.9723 Cl  0  0  0  0  0  0  0  0  0  0  0  0
    2.9891  -13.6329   25.7233 C   0  0  0  0  0  0  0  0  0  0  0  0
    1.7208  -13.0956   26.0376 N   0  0  0  0  0  0  0  0  0  0  0  0
    1.1619  -13.8219   26.9786 C   0  0  0  0  0  0  0  0  0  0  0  0
    2.0313  -15.1922   27.5088 S   0  0  0  0  0  0  0  0  0  0  0  0
    3.2856  -14.7825   26.4301 C   0  0  0  0  0  0  0  0  0  0  0  0
    4.8620  -15.8431   26.3043 Br  0  0  0  0  0  0  0  0  0  0  0  0
  1  2  2  0
  2  3  1  0
  3  4  1  0
  4  5  1  0
  5  6  1  6
  5  7  1  0
  2  8  1  0
  8  9  1  0
  9 10  2  0
 10 11  1  0
 11 12  1  0
 12 13  1  0
 12  8  2  0
M  END
>  <inchikey>  (723) 
ZMQCOOLFFQJEPY-UHFFFAOYSA-N

>  <tags>  (723) 
fragmenstein_placed,CpKRS_FrAncestor_bulkdock_iter2

>  <ref_pdb>  (723) 
x0485c

>  <energy_score>  (723) 
-55.614655

>  <distance_score>  (723) 
0.467353

>  <HIPPO Pose ID>  (723) 
56356

>  <ref_mols>  (723) 
x0504b

>  <smiles>  (723) 
O=C(NCC(F)Cl)c1ncsc1Br

>  <HIPPO Compound ID>  (723) 
34412

>  <alias>  (723) 
ZMQCOOLFFQJEPY-UHFFFAOYSA-N-P49

>  <subsites>  (723) 


>  <placement_batch>  (723) 
CpKRS_FrAncestor_bulkdock_iter2

>  <name>  (723) 
ZMQCOOLFFQJEPY-UHFFFAOYSA-N-P49

$$$$
BQYJMRPNIYXUPE-UHFFFAOYSA-N-P48
     RDKit          3D

 16 16  0  0  0  0  0  0  0  0999 V2000
    4.9505  -13.8589   24.5030 O   0  0  0  0  0  0  0  0  0  0  0  0
    3.8980  -13.4121   24.7079 C   0  0  0  0  0  0  0  0  0  0  0  0
    3.1224  -12.3207   23.9675 N   0  0  0  0  0  0  0  0  0  0  0  0
    3.5149  -11.4737   22.8670 C   0  0  0  0  0  0  0  0  0  0  0  0
    4.6802  -10.5377   23.1866 C   0  0  2  0  0  0  0  0  0  0  0  0
    4.2577   -9.5941   24.0774 F   0  0  0  0  0  0  0  0  0  0  0  0
    5.2194   -9.6804   21.7246 Cl  0  0  0  0  0  0  0  0  0  0  0  0
    3.0483  -13.8901   25.8172 C   0  0  0  0  0  0  0  0  0  0  0  0
    1.7509  -13.3754   25.9814 N   0  0  0  0  0  0  0  0  0  0  0  0
    1.1800  -13.9372   27.0227 C   0  0  0  0  0  0  0  0  0  0  0  0
    2.1124  -15.1042   27.8486 S   0  0  0  0  0  0  0  0  0  0  0  0
    3.4130  -14.8390   26.7559 C   0  0  0  0  0  0  0  0  0  0  0  0
    4.6840  -15.5846   26.8992 C   0  0  0  0  0  0  0  0  0  0  0  0
    4.8091  -16.1369   28.1373 F   0  0  0  0  0  0  0  0  0  0  0  0
    5.7907  -14.8176   26.7390 F   0  0  0  0  0  0  0  0  0  0  0  0
    4.7795  -16.6069   26.0108 F   0  0  0  0  0  0  0  0  0  0  0  0
  1  2  2  0
  2  3  1  0
  3  4  1  0
  4  5  1  0
  5  6  1  1
  5  7  1  0
  2  8  1  0
  8  9  1  0
  9 10  2  0
 10 11  1  0
 11 12  1  0
 12 13  1  0
 13 14  1  0
 13 15  1  0
 13 16  1  0
 12  8  2  0
M  END
>  <inchikey>  (724) 
BQYJMRPNIYXUPE-UHFFFAOYSA-N

>  <tags>  (724) 
fragmenstein_placed,CpKRS_FrAncestor_bulkdock_iter2

>  <ref_pdb>  (724) 
x0485c

>  <energy_score>  (724) 
-69.440655

>  <distance_score>  (724) 
0.422715

>  <HIPPO Pose ID>  (724) 
56358

>  <ref_mols>  (724) 
x0504a

>  <smiles>  (724) 
O=C(NCC(F)Cl)c1ncsc1C(F)(F)F

>  <HIPPO Compound ID>  (724) 
34413

>  <alias>  (724) 
BQYJMRPNIYXUPE-UHFFFAOYSA-N-P48

>  <subsites>  (724) 


>  <placement_batch>  (724) 
CpKRS_FrAncestor_bulkdock_iter2

>  <name>  (724) 
BQYJMRPNIYXUPE-UHFFFAOYSA-N-P48

$$$$
UNFDVPXKPLSHOC-UHFFFAOYSA-N-P49
     RDKit          3D

 13 13  0  0  0  0  0  0  0  0999 V2000
    5.0091  -13.4127   24.4908 O   0  0  0  0  0  0  0  0  0  0  0  0
    3.9401  -13.0411   24.7565 C   0  0  0  0  0  0  0  0  0  0  0  0
    3.1588  -11.8200   24.2549 N   0  0  0  0  0  0  0  0  0  0  0  0
    3.4910  -10.8448   23.2449 C   0  0  0  0  0  0  0  0  0  0  0  0
    4.7744  -10.0560   23.5204 C   0  0  1  0  0  0  0  0  0  0  0  0
    5.0233   -9.2368   22.4618 F   0  0  0  0  0  0  0  0  0  0  0  0
    4.6110   -9.0240   24.9581 Cl  0  0  0  0  0  0  0  0  0  0  0  0
    3.0958  -13.7367   25.7505 C   0  0  0  0  0  0  0  0  0  0  0  0
    1.8177  -13.2326   26.0781 N   0  0  0  0  0  0  0  0  0  0  0  0
    1.2916  -13.9785   27.0240 C   0  0  0  0  0  0  0  0  0  0  0  0
    2.2065  -15.3276   27.5394 S   0  0  0  0  0  0  0  0  0  0  0  0
    3.4326  -14.8774   26.4499 C   0  0  0  0  0  0  0  0  0  0  0  0
    4.8471  -15.8401   26.3723 Cl  0  0  0  0  0  0  0  0  0  0  0  0
  1  2  2  0
  2  3  1  0
  3  4  1  0
  4  5  1  0
  5  6  1  6
  5  7  1  0
  2  8  1  0
  8  9  1  0
  9 10  2  0
 10 11  1  0
 11 12  1  0
 12 13  1  0
 12  8  2  0
M  END
>  <inchikey>  (725) 
UNFDVPXKPLSHOC-UHFFFAOYSA-N

>  <tags>  (725) 
fragmenstein_placed,CpKRS_FrAncestor_bulkdock_iter2

>  <ref_pdb>  (725) 
x0485c

>  <energy_score>  (725) 
-55.697247

>  <distance_score>  (725) 
0.416988

>  <HIPPO Pose ID>  (725) 
56362

>  <ref_mols>  (725) 
x0504b

>  <smiles>  (725) 
O=C(NCC(F)Cl)c1ncsc1Cl

>  <HIPPO Compound ID>  (725) 
34414

>  <alias>  (725) 
UNFDVPXKPLSHOC-UHFFFAOYSA-N-P49

>  <subsites>  (725) 


>  <placement_batch>  (725) 
CpKRS_FrAncestor_bulkdock_iter2

>  <name>  (725) 
UNFDVPXKPLSHOC-UHFFFAOYSA-N-P49

$$$$
SDWDUIBUXNOKKH-UHFFFAOYSA-N-P48
     RDKit          3D

 14 14  0  0  0  0  0  0  0  0999 V2000
    5.4937  -13.3050   25.1269 O   0  0  0  0  0  0  0  0  0  0  0  0
    4.3897  -13.1368   24.8038 C   0  0  0  0  0  0  0  0  0  0  0  0
    3.8074  -12.3381   23.6269 N   0  0  0  0  0  0  0  0  0  0  0  0
    4.4657  -11.6548   22.5428 C   0  0  0  0  0  0  0  0  0  0  0  0
    4.9657  -10.2752   22.9680 C   0  0  2  0  0  0  0  0  0  0  0  0
    3.9490   -9.5737   23.5495 F   0  0  0  0  0  0  0  0  0  0  0  0
    5.5031   -9.3468   21.5609 Cl  0  0  0  0  0  0  0  0  0  0  0  0
    3.2901  -13.6814   25.6006 C   0  0  0  0  0  0  0  0  0  0  0  0
    1.7093  -13.0006   25.5191 S   0  0  0  0  0  0  0  0  0  0  0  0
    1.1790  -14.1405   26.6401 C   0  0  0  0  0  0  0  0  0  0  0  0
   -0.4884  -14.1967   27.0025 Cl  0  0  0  0  0  0  0  0  0  0  0  0
    2.0548  -14.9814   27.1172 N   0  0  0  0  0  0  0  0  0  0  0  0
    3.2851  -14.7146   26.5269 C   0  0  0  0  0  0  0  0  0  0  0  0
    4.6208  -15.7023   26.9342 Cl  0  0  0  0  0  0  0  0  0  0  0  0
  1  2  2  0
  2  3  1  0
  3  4  1  0
  4  5  1  0
  5  6  1  6
  5  7  1  0
  2  8  1  0
  8  9  1  0
  9 10  1  0
 10 11  1  0
 10 12  2  0
 12 13  1  0
 13 14  1  0
 13  8  2  0
M  END
>  <inchikey>  (726) 
SDWDUIBUXNOKKH-UHFFFAOYSA-N

>  <tags>  (726) 
fragmenstein_placed,CpKRS_FrAncestor_bulkdock_iter2

>  <ref_pdb>  (726) 
x0485c

>  <energy_score>  (726) 
-56.525922

>  <distance_score>  (726) 
0.575889

>  <HIPPO Pose ID>  (726) 
56364

>  <ref_mols>  (726) 
x0504a

>  <smiles>  (726) 
O=C(NCC(F)Cl)c1sc(Cl)nc1Cl

>  <HIPPO Compound ID>  (726) 
34415

>  <alias>  (726) 
SDWDUIBUXNOKKH-UHFFFAOYSA-N-P48

>  <subsites>  (726) 


>  <placement_batch>  (726) 
CpKRS_FrAncestor_bulkdock_iter2

>  <name>  (726) 
SDWDUIBUXNOKKH-UHFFFAOYSA-N-P48

$$$$
IBCIUJBWJMUDON-UHFFFAOYSA-N-P48
     RDKit          3D

 13 13  0  0  0  0  0  0  0  0999 V2000
    4.9179  -13.3441   24.8786 O   0  0  0  0  0  0  0  0  0  0  0  0
    3.7915  -13.0572   24.8918 C   0  0  0  0  0  0  0  0  0  0  0  0
    3.0093  -12.0591   24.0263 N   0  0  0  0  0  0  0  0  0  0  0  0
    3.4295  -11.2697   22.8948 C   0  0  0  0  0  0  0  0  0  0  0  0
    4.6662  -10.4115   23.1675 C   0  0  2  0  0  0  0  0  0  0  0  0
    4.3232   -9.4267   24.0487 F   0  0  0  0  0  0  0  0  0  0  0  0
    5.2175   -9.6172   21.6754 Cl  0  0  0  0  0  0  0  0  0  0  0  0
    2.8836  -13.6911   25.8616 C   0  0  0  0  0  0  0  0  0  0  0  0
    1.2588  -13.1623   26.1053 S   0  0  0  0  0  0  0  0  0  0  0  0
    1.0590  -14.3164   27.3471 C   0  0  0  0  0  0  0  0  0  0  0  0
    2.0826  -15.1042   27.5652 N   0  0  0  0  0  0  0  0  0  0  0  0
    3.1190  -14.7546   26.7162 C   0  0  0  0  0  0  0  0  0  0  0  0
    4.7162  -15.7661   26.7846 Br  0  0  0  0  0  0  0  0  0  0  0  0
  1  2  2  0
  2  3  1  0
  3  4  1  0
  4  5  1  0
  5  6  1  1
  5  7  1  0
  2  8  1  0
  8  9  1  0
  9 10  1  0
 10 11  2  0
 11 12  1  0
 12 13  1  0
 12  8  2  0
M  END
>  <inchikey>  (727) 
IBCIUJBWJMUDON-UHFFFAOYSA-N

>  <tags>  (727) 
fragmenstein_placed,CpKRS_FrAncestor_bulkdock_iter2

>  <ref_pdb>  (727) 
x0485c

>  <energy_score>  (727) 
-54.771609

>  <distance_score>  (727) 
0.409611

>  <HIPPO Pose ID>  (727) 
56367

>  <ref_mols>  (727) 
x0504a

>  <smiles>  (727) 
O=C(NCC(F)Cl)c1scnc1Br

>  <HIPPO Compound ID>  (727) 
34416

>  <alias>  (727) 
IBCIUJBWJMUDON-UHFFFAOYSA-N-P48

>  <subsites>  (727) 


>  <placement_batch>  (727) 
CpKRS_FrAncestor_bulkdock_iter2

>  <name>  (727) 
IBCIUJBWJMUDON-UHFFFAOYSA-N-P48

$$$$
KQNWLXQTGRKDEN-UHFFFAOYSA-N-P48
     RDKit          3D

 16 16  0  0  0  0  0  0  0  0999 V2000
    5.2265  -14.0673   25.0087 O   0  0  0  0  0  0  0  0  0  0  0  0
    4.1650  -13.6165   24.8587 C   0  0  0  0  0  0  0  0  0  0  0  0
    3.6361  -12.6500   23.7876 N   0  0  0  0  0  0  0  0  0  0  0  0
    4.3298  -11.9545   22.7221 C   0  0  0  0  0  0  0  0  0  0  0  0
    4.3018  -10.4343   22.8824 C   0  0  1  0  0  0  0  0  0  0  0  0
    4.8207  -10.0588   24.0805 F   0  0  0  0  0  0  0  0  0  0  0  0
    5.2072   -9.6168   21.5982 Cl  0  0  0  0  0  0  0  0  0  0  0  0
    3.1004  -13.9602   25.8110 C   0  0  0  0  0  0  0  0  0  0  0  0
    1.5720  -13.1685   25.8376 S   0  0  0  0  0  0  0  0  0  0  0  0
    1.0969  -14.1079   27.1805 C   0  0  0  0  0  0  0  0  0  0  0  0
    1.9761  -14.9827   27.6018 N   0  0  0  0  0  0  0  0  0  0  0  0
    3.1432  -14.9169   26.8203 C   0  0  0  0  0  0  0  0  0  0  0  0
    4.2775  -15.8583   27.1059 C   0  0  0  0  0  0  0  0  0  0  0  0
    4.4836  -16.7361   26.0885 F   0  0  0  0  0  0  0  0  0  0  0  0
    5.4622  -15.2390   27.3398 F   0  0  0  0  0  0  0  0  0  0  0  0
    4.0326  -16.6039   28.2191 F   0  0  0  0  0  0  0  0  0  0  0  0
  1  2  2  0
  2  3  1  0
  3  4  1  0
  4  5  1  0
  5  6  1  1
  5  7  1  0
  2  8  1  0
  8  9  1  0
  9 10  1  0
 10 11  2  0
 11 12  1  0
 12 13  1  0
 13 14  1  0
 13 15  1  0
 13 16  1  0
 12  8  2  0
M  END
>  <inchikey>  (728) 
KQNWLXQTGRKDEN-UHFFFAOYSA-N

>  <tags>  (728) 
fragmenstein_placed,CpKRS_FrAncestor_bulkdock_iter2

>  <ref_pdb>  (728) 
x0485c

>  <energy_score>  (728) 
-54.675615

>  <distance_score>  (728) 
0.410468

>  <HIPPO Pose ID>  (728) 
56370

>  <ref_mols>  (728) 
x0504a

>  <smiles>  (728) 
O=C(NCC(F)Cl)c1scnc1C(F)(F)F

>  <HIPPO Compound ID>  (728) 
34417

>  <alias>  (728) 
KQNWLXQTGRKDEN-UHFFFAOYSA-N-P48

>  <subsites>  (728) 


>  <placement_batch>  (728) 
CpKRS_FrAncestor_bulkdock_iter2

>  <name>  (728) 
KQNWLXQTGRKDEN-UHFFFAOYSA-N-P48

$$$$
DPAIGUCHOGYWPC-UHFFFAOYSA-N-P48
     RDKit          3D

 13 13  0  0  0  0  0  0  0  0999 V2000
    4.9924  -13.4795   24.9117 O   0  0  0  0  0  0  0  0  0  0  0  0
    3.8695  -13.1782   24.9385 C   0  0  0  0  0  0  0  0  0  0  0  0
    3.0850  -12.1815   24.0700 N   0  0  0  0  0  0  0  0  0  0  0  0
    3.4976  -11.4126   22.9195 C   0  0  0  0  0  0  0  0  0  0  0  0
    4.6771  -10.4783   23.1938 C   0  0  2  0  0  0  0  0  0  0  0  0
    4.2623   -9.4905   24.0403 F   0  0  0  0  0  0  0  0  0  0  0  0
    5.2188   -9.6929   21.6933 Cl  0  0  0  0  0  0  0  0  0  0  0  0
    2.9705  -13.7879   25.9309 C   0  0  0  0  0  0  0  0  0  0  0  0
    1.3459  -13.2566   26.1689 S   0  0  0  0  0  0  0  0  0  0  0  0
    1.1561  -14.3835   27.4352 C   0  0  0  0  0  0  0  0  0  0  0  0
    2.1863  -15.1573   27.6705 N   0  0  0  0  0  0  0  0  0  0  0  0
    3.2272  -14.8289   26.8110 C   0  0  0  0  0  0  0  0  0  0  0  0
    4.6767  -15.7326   26.9132 Cl  0  0  0  0  0  0  0  0  0  0  0  0
  1  2  2  0
  2  3  1  0
  3  4  1  0
  4  5  1  0
  5  6  1  1
  5  7  1  0
  2  8  1  0
  8  9  1  0
  9 10  1  0
 10 11  2  0
 11 12  1  0
 12 13  1  0
 12  8  2  0
M  END
>  <inchikey>  (729) 
DPAIGUCHOGYWPC-UHFFFAOYSA-N

>  <tags>  (729) 
fragmenstein_placed,CpKRS_FrAncestor_bulkdock_iter2

>  <ref_pdb>  (729) 
x0485c

>  <energy_score>  (729) 
-51.763924

>  <distance_score>  (729) 
0.349049

>  <HIPPO Pose ID>  (729) 
56373

>  <ref_mols>  (729) 
x0504a

>  <smiles>  (729) 
O=C(NCC(F)Cl)c1scnc1Cl

>  <HIPPO Compound ID>  (729) 
34418

>  <alias>  (729) 
DPAIGUCHOGYWPC-UHFFFAOYSA-N-P48

>  <subsites>  (729) 


>  <placement_batch>  (729) 
CpKRS_FrAncestor_bulkdock_iter2

>  <name>  (729) 
DPAIGUCHOGYWPC-UHFFFAOYSA-N-P48

$$$$
KTXUBOVHNBAXKB-UHFFFAOYSA-N-P48
     RDKit          3D

 13 13  0  0  0  0  0  0  0  0999 V2000
    5.3178  -13.7155   25.1705 O   0  0  0  0  0  0  0  0  0  0  0  0
    4.2020  -13.4104   25.0435 C   0  0  0  0  0  0  0  0  0  0  0  0
    3.5333  -12.4862   24.0134 N   0  0  0  0  0  0  0  0  0  0  0  0
    4.0852  -11.8117   22.8559 C   0  0  0  0  0  0  0  0  0  0  0  0
    4.3291  -10.3096   23.0210 C   0  0  0  0  0  0  0  0  0  0  0  0
    5.2189  -10.0429   24.0039 F   0  0  0  0  0  0  0  0  0  0  0  0
    4.8468   -9.7959   21.8749 F   0  0  0  0  0  0  0  0  0  0  0  0
    2.6611   -9.3610   23.4254 Br  0  0  0  0  0  0  0  0  0  0  0  0
    3.2008  -13.9266   25.9825 C   0  0  0  0  0  0  0  0  0  0  0  0
    3.3917  -14.8849   26.9619 C   0  0  0  0  0  0  0  0  0  0  0  0
    2.2964  -15.1713   27.7583 N   0  0  0  0  0  0  0  0  0  0  0  0
    1.2834  -14.4268   27.3796 C   0  0  0  0  0  0  0  0  0  0  0  0
    1.5704  -13.3839   26.0513 S   0  0  0  0  0  0  0  0  0  0  0  0
  1  2  2  0
  2  3  1  0
  3  4  1  0
  4  5  1  0
  5  6  1  0
  5  7  1  0
  5  8  1  0
  2  9  1  0
  9 10  2  0
 10 11  1  0
 11 12  2  0
 12 13  1  0
 13  9  1  0
M  END
>  <inchikey>  (730) 
KTXUBOVHNBAXKB-UHFFFAOYSA-N

>  <tags>  (730) 
fragmenstein_placed,CpKRS_FrAncestor_bulkdock_iter2

>  <ref_pdb>  (730) 
x0485c

>  <energy_score>  (730) 
-64.295823

>  <distance_score>  (730) 
0.37506

>  <HIPPO Pose ID>  (730) 
56376

>  <ref_mols>  (730) 
x0504a

>  <smiles>  (730) 
O=C(NCC(F)(F)Br)c1cncs1

>  <HIPPO Compound ID>  (730) 
34419

>  <alias>  (730) 
KTXUBOVHNBAXKB-UHFFFAOYSA-N-P48

>  <subsites>  (730) 


>  <placement_batch>  (730) 
CpKRS_FrAncestor_bulkdock_iter2

>  <name>  (730) 
KTXUBOVHNBAXKB-UHFFFAOYSA-N-P48

$$$$
VLFILEDVDHCLFD-UHFFFAOYSA-N-P48
     RDKit          3D

 13 13  0  0  0  0  0  0  0  0999 V2000
    5.4677  -13.7219   25.0428 O   0  0  0  0  0  0  0  0  0  0  0  0
    4.3463  -13.4165   25.0023 C   0  0  0  0  0  0  0  0  0  0  0  0
    3.6062  -12.4792   24.0426 N   0  0  0  0  0  0  0  0  0  0  0  0
    4.0707  -11.7856   22.8615 C   0  0  0  0  0  0  0  0  0  0  0  0
    4.3024  -10.2831   23.0243 C   0  0  0  0  0  0  0  0  0  0  0  0
    5.2093  -10.0074   23.9898 F   0  0  0  0  0  0  0  0  0  0  0  0
    4.7998   -9.7673   21.8686 F   0  0  0  0  0  0  0  0  0  0  0  0
    2.6363   -9.3442   23.4488 Br  0  0  0  0  0  0  0  0  0  0  0  0
    3.3580  -13.9663   25.9498 C   0  0  0  0  0  0  0  0  0  0  0  0
    3.6501  -14.9300   26.8978 C   0  0  0  0  0  0  0  0  0  0  0  0
    2.2692  -15.2671   27.8481 S   0  0  0  0  0  0  0  0  0  0  0  0
    1.3739  -14.1353   26.9235 C   0  0  0  0  0  0  0  0  0  0  0  0
    2.0199  -13.5387   25.9439 N   0  0  0  0  0  0  0  0  0  0  0  0
  1  2  2  0
  2  3  1  0
  3  4  1  0
  4  5  1  0
  5  6  1  0
  5  7  1  0
  5  8  1  0
  2  9  1  0
  9 10  2  0
 10 11  1  0
 11 12  1  0
 12 13  2  0
 13  9  1  0
M  END
>  <inchikey>  (731) 
VLFILEDVDHCLFD-UHFFFAOYSA-N

>  <tags>  (731) 
fragmenstein_placed,CpKRS_FrAncestor_bulkdock_iter2

>  <ref_pdb>  (731) 
x0485c

>  <energy_score>  (731) 
-65.597609

>  <distance_score>  (731) 
0.455232

>  <HIPPO Pose ID>  (731) 
56379

>  <ref_mols>  (731) 
x0504a

>  <smiles>  (731) 
O=C(NCC(F)(F)Br)c1cscn1

>  <HIPPO Compound ID>  (731) 
34420

>  <alias>  (731) 
VLFILEDVDHCLFD-UHFFFAOYSA-N-P48

>  <subsites>  (731) 


>  <placement_batch>  (731) 
CpKRS_FrAncestor_bulkdock_iter2

>  <name>  (731) 
VLFILEDVDHCLFD-UHFFFAOYSA-N-P48

$$$$
JVELPNVAKBPBMK-UHFFFAOYSA-N-P48
     RDKit          3D

 13 13  0  0  0  0  0  0  0  0999 V2000
    5.4985  -13.3385   25.1296 O   0  0  0  0  0  0  0  0  0  0  0  0
    4.4160  -13.1539   24.7435 C   0  0  0  0  0  0  0  0  0  0  0  0
    3.9140  -12.3619   23.5220 N   0  0  0  0  0  0  0  0  0  0  0  0
    4.6449  -11.7087   22.4640 C   0  0  0  0  0  0  0  0  0  0  0  0
    4.5394  -10.1933   22.5485 C   0  0  0  0  0  0  0  0  0  0  0  0
    5.1030   -9.7137   23.6839 F   0  0  0  0  0  0  0  0  0  0  0  0
    5.1884   -9.6146   21.5110 F   0  0  0  0  0  0  0  0  0  0  0  0
    3.2682  -13.6422   25.5070 C   0  0  0  0  0  0  0  0  0  0  0  0
    3.2358  -14.5625   26.5410 C   0  0  0  0  0  0  0  0  0  0  0  0
    1.9789  -14.8444   27.0632 N   0  0  0  0  0  0  0  0  0  0  0  0
    1.0953  -14.1079   26.4354 C   0  0  0  0  0  0  0  0  0  0  0  0
   -0.7896  -14.2390   26.7101 Br  0  0  0  0  0  0  0  0  0  0  0  0
    1.6802  -13.0453   25.2499 S   0  0  0  0  0  0  0  0  0  0  0  0
  1  2  2  0
  2  3  1  0
  3  4  1  0
  4  5  1  0
  5  6  1  0
  5  7  1  0
  2  8  1  0
  8  9  2  0
  9 10  1  0
 10 11  2  0
 11 12  1  0
 11 13  1  0
 13  8  1  0
M  END
>  <inchikey>  (732) 
JVELPNVAKBPBMK-UHFFFAOYSA-N

>  <tags>  (732) 
fragmenstein_placed,CpKRS_FrAncestor_bulkdock_iter2

>  <ref_pdb>  (732) 
x0485c

>  <energy_score>  (732) 
-3.116739

>  <distance_score>  (732) 
0.662696

>  <HIPPO Pose ID>  (732) 
56382

>  <ref_mols>  (732) 
x0504a

>  <smiles>  (732) 
O=C(NCC(F)F)c1cnc(Br)s1

>  <HIPPO Compound ID>  (732) 
34421

>  <alias>  (732) 
JVELPNVAKBPBMK-UHFFFAOYSA-N-P48

>  <subsites>  (732) 


>  <placement_batch>  (732) 
CpKRS_FrAncestor_bulkdock_iter2

>  <name>  (732) 
JVELPNVAKBPBMK-UHFFFAOYSA-N-P48

$$$$
HHIIEYMQYJHYEN-UHFFFAOYSA-N-P48
     RDKit          3D

 16 16  0  0  0  0  0  0  0  0999 V2000
    5.6993  -13.4285   25.0681 O   0  0  0  0  0  0  0  0  0  0  0  0
    4.5756  -13.2589   24.8199 C   0  0  0  0  0  0  0  0  0  0  0  0
    3.9164  -12.4635   23.6830 N   0  0  0  0  0  0  0  0  0  0  0  0
    4.5020  -11.7838   22.5513 C   0  0  0  0  0  0  0  0  0  0  0  0
    4.3744  -10.2707   22.6464 C   0  0  0  0  0  0  0  0  0  0  0  0
    5.0216   -9.7780   23.7304 F   0  0  0  0  0  0  0  0  0  0  0  0
    4.9312   -9.6817   21.5602 F   0  0  0  0  0  0  0  0  0  0  0  0
    3.5550  -13.8305   25.6930 C   0  0  0  0  0  0  0  0  0  0  0  0
    3.7392  -14.7997   26.6580 C   0  0  0  0  0  0  0  0  0  0  0  0
    2.6238  -15.1337   27.3959 N   0  0  0  0  0  0  0  0  0  0  0  0
    1.5990  -14.3859   27.0227 C   0  0  0  0  0  0  0  0  0  0  0  0
    0.2228  -14.4434   27.6062 C   0  0  0  0  0  0  0  0  0  0  0  0
    0.2284  -15.0891   28.7973 F   0  0  0  0  0  0  0  0  0  0  0  0
   -0.3267  -13.2186   27.8122 F   0  0  0  0  0  0  0  0  0  0  0  0
   -0.6364  -15.0986   26.7747 F   0  0  0  0  0  0  0  0  0  0  0  0
    1.9203  -13.3143   25.7161 S   0  0  0  0  0  0  0  0  0  0  0  0
  1  2  2  0
  2  3  1  0
  3  4  1  0
  4  5  1  0
  5  6  1  0
  5  7  1  0
  2  8  1  0
  8  9  2  0
  9 10  1  0
 10 11  2  0
 11 12  1  0
 12 13  1  0
 12 14  1  0
 12 15  1  0
 11 16  1  0
 16  8  1  0
M  END
>  <inchikey>  (733) 
HHIIEYMQYJHYEN-UHFFFAOYSA-N

>  <tags>  (733) 
fragmenstein_placed,CpKRS_FrAncestor_bulkdock_iter2

>  <ref_pdb>  (733) 
x0485c

>  <energy_score>  (733) 
-48.684307

>  <distance_score>  (733) 
0.530736

>  <HIPPO Pose ID>  (733) 
56385

>  <ref_mols>  (733) 
x0504a

>  <smiles>  (733) 
O=C(NCC(F)F)c1cnc(C(F)(F)F)s1

>  <HIPPO Compound ID>  (733) 
34422

>  <alias>  (733) 
HHIIEYMQYJHYEN-UHFFFAOYSA-N-P48

>  <subsites>  (733) 


>  <placement_batch>  (733) 
CpKRS_FrAncestor_bulkdock_iter2

>  <name>  (733) 
HHIIEYMQYJHYEN-UHFFFAOYSA-N-P48

$$$$
PDGUKKRJERJIDP-UHFFFAOYSA-N-P49
     RDKit          3D

 13 13  0  0  0  0  0  0  0  0999 V2000
    5.4260  -13.5754   24.8205 O   0  0  0  0  0  0  0  0  0  0  0  0
    4.3695  -13.1016   24.7082 C   0  0  0  0  0  0  0  0  0  0  0  0
    3.9063  -11.8823   23.8955 N   0  0  0  0  0  0  0  0  0  0  0  0
    4.6281  -11.0429   22.9729 C   0  0  0  0  0  0  0  0  0  0  0  0
    5.3013   -9.8738   23.6816 C   0  0  0  0  0  0  0  0  0  0  0  0
    5.6681   -8.9394   22.7683 F   0  0  0  0  0  0  0  0  0  0  0  0
    4.4120   -9.2585   24.5081 F   0  0  0  0  0  0  0  0  0  0  0  0
    3.2494  -13.6232   25.4898 C   0  0  0  0  0  0  0  0  0  0  0  0
    3.2490  -14.6602   26.4107 C   0  0  0  0  0  0  0  0  0  0  0  0
    2.0423  -14.8978   27.0566 N   0  0  0  0  0  0  0  0  0  0  0  0
    1.1757  -14.0310   26.6069 C   0  0  0  0  0  0  0  0  0  0  0  0
   -0.4513  -13.9594   27.1195 Cl  0  0  0  0  0  0  0  0  0  0  0  0
    1.6772  -12.9335   25.4304 S   0  0  0  0  0  0  0  0  0  0  0  0
  1  2  2  0
  2  3  1  0
  3  4  1  0
  4  5  1  0
  5  6  1  0
  5  7  1  0
  2  8  1  0
  8  9  2  0
  9 10  1  0
 10 11  2  0
 11 12  1  0
 11 13  1  0
 13  8  1  0
M  END
>  <inchikey>  (734) 
PDGUKKRJERJIDP-UHFFFAOYSA-N

>  <tags>  (734) 
fragmenstein_placed,CpKRS_FrAncestor_bulkdock_iter2

>  <ref_pdb>  (734) 
x0485c

>  <energy_score>  (734) 
-52.675236

>  <distance_score>  (734) 
0.594198

>  <HIPPO Pose ID>  (734) 
56389

>  <ref_mols>  (734) 
x0504b

>  <smiles>  (734) 
O=C(NCC(F)F)c1cnc(Cl)s1

>  <HIPPO Compound ID>  (734) 
34423

>  <alias>  (734) 
PDGUKKRJERJIDP-UHFFFAOYSA-N-P49

>  <subsites>  (734) 


>  <placement_batch>  (734) 
CpKRS_FrAncestor_bulkdock_iter2

>  <name>  (734) 
PDGUKKRJERJIDP-UHFFFAOYSA-N-P49

$$$$
MNPJWVAWPFMEDJ-UHFFFAOYSA-N-P48
     RDKit          3D

 12 12  0  0  0  0  0  0  0  0999 V2000
    5.0560  -13.4812   24.9072 O   0  0  0  0  0  0  0  0  0  0  0  0
    3.9278  -13.1996   24.9602 C   0  0  0  0  0  0  0  0  0  0  0  0
    3.0979  -12.2444   24.0879 N   0  0  0  0  0  0  0  0  0  0  0  0
    3.4593  -11.5038   22.9037 C   0  0  0  0  0  0  0  0  0  0  0  0
    4.6499  -10.5657   23.0688 C   0  0  0  0  0  0  0  0  0  0  0  0
    4.2933   -9.5142   23.8592 F   0  0  0  0  0  0  0  0  0  0  0  0
    4.9623  -10.0229   21.8611 F   0  0  0  0  0  0  0  0  0  0  0  0
    3.0700  -13.8227   25.9739 C   0  0  0  0  0  0  0  0  0  0  0  0
    3.4227  -14.8037   26.8837 C   0  0  0  0  0  0  0  0  0  0  0  0
    2.4339  -15.1990   27.7690 N   0  0  0  0  0  0  0  0  0  0  0  0
    1.3397  -14.5154   27.5253 C   0  0  0  0  0  0  0  0  0  0  0  0
    1.4188  -13.4090   26.2222 S   0  0  0  0  0  0  0  0  0  0  0  0
  1  2  2  0
  2  3  1  0
  3  4  1  0
  4  5  1  0
  5  6  1  0
  5  7  1  0
  2  8  1  0
  8  9  2  0
  9 10  1  0
 10 11  2  0
 11 12  1  0
 12  8  1  0
M  END
>  <inchikey>  (735) 
MNPJWVAWPFMEDJ-UHFFFAOYSA-N

>  <tags>  (735) 
fragmenstein_placed,CpKRS_FrAncestor_bulkdock_iter2

>  <ref_pdb>  (735) 
x0485c

>  <energy_score>  (735) 
-40.676971

>  <distance_score>  (735) 
0.369987

>  <HIPPO Pose ID>  (735) 
56391

>  <ref_mols>  (735) 
x0504a

>  <smiles>  (735) 
O=C(NCC(F)F)c1cncs1

>  <HIPPO Compound ID>  (735) 
34424

>  <alias>  (735) 
MNPJWVAWPFMEDJ-UHFFFAOYSA-N-P48

>  <subsites>  (735) 


>  <placement_batch>  (735) 
CpKRS_FrAncestor_bulkdock_iter2

>  <name>  (735) 
MNPJWVAWPFMEDJ-UHFFFAOYSA-N-P48

$$$$
XNHVGOQVOPDMAE-UHFFFAOYSA-N-P47
     RDKit          3D

 12 12  0  0  0  0  0  0  0  0999 V2000
    3.7120    4.6839   42.4920 O   0  0  0  0  0  0  0  0  0  0  0  0
    3.0605    5.1515   43.3342 C   0  0  0  0  0  0  0  0  0  0  0  0
    2.2681    6.4593   43.3645 N   0  0  0  0  0  0  0  0  0  0  0  0
    2.1810    7.5264   42.3958 C   0  0  0  0  0  0  0  0  0  0  0  0
    3.4751    7.7236   41.6174 C   0  0  0  0  0  0  0  0  0  0  0  0
    4.4949    7.9678   42.4858 F   0  0  0  0  0  0  0  0  0  0  0  0
    3.3765    8.8142   40.8166 F   0  0  0  0  0  0  0  0  0  0  0  0
    2.9523    4.5082   44.6513 C   0  0  0  0  0  0  0  0  0  0  0  0
    3.6069    3.3370   44.9826 C   0  0  0  0  0  0  0  0  0  0  0  0
    3.2721    2.9207   46.6005 S   0  0  0  0  0  0  0  0  0  0  0  0
    2.2846    4.3060   46.7550 C   0  0  0  0  0  0  0  0  0  0  0  0
    2.1940    5.0652   45.6856 N   0  0  0  0  0  0  0  0  0  0  0  0
  1  2  2  0
  2  3  1  0
  3  4  1  0
  4  5  1  0
  5  6  1  0
  5  7  1  0
  2  8  1  0
  8  9  2  0
  9 10  1  0
 10 11  1  0
 11 12  2  0
 12  8  1  0
M  END
>  <inchikey>  (736) 
XNHVGOQVOPDMAE-UHFFFAOYSA-N

>  <tags>  (736) 
fragmenstein_placed,CpKRS_FrAncestor_bulkdock_iter2

>  <ref_pdb>  (736) 
x0485c

>  <energy_score>  (736) 
-28.705051

>  <distance_score>  (736) 
0.438618

>  <HIPPO Pose ID>  (736) 
56396

>  <ref_mols>  (736) 
x0504c

>  <smiles>  (736) 
O=C(NCC(F)F)c1cscn1

>  <HIPPO Compound ID>  (736) 
34425

>  <alias>  (736) 
XNHVGOQVOPDMAE-UHFFFAOYSA-N-P47

>  <subsites>  (736) 


>  <placement_batch>  (736) 
CpKRS_FrAncestor_bulkdock_iter2

>  <name>  (736) 
XNHVGOQVOPDMAE-UHFFFAOYSA-N-P47

$$$$
ZRURAQYBALEGMU-UHFFFAOYSA-N-P49
     RDKit          3D

 14 14  0  0  0  0  0  0  0  0999 V2000
    5.1435  -13.4342   24.4868 O   0  0  0  0  0  0  0  0  0  0  0  0
    4.0675  -13.0499   24.6988 C   0  0  0  0  0  0  0  0  0  0  0  0
    3.3395  -11.8012   24.1873 N   0  0  0  0  0  0  0  0  0  0  0  0
    3.7481  -10.8062   23.2288 C   0  0  0  0  0  0  0  0  0  0  0  0
    4.9419   -9.9808   23.6941 C   0  0  0  0  0  0  0  0  0  0  0  0
    4.6373   -9.3471   24.8582 F   0  0  0  0  0  0  0  0  0  0  0  0
    5.1890   -8.9992   22.7869 F   0  0  0  0  0  0  0  0  0  0  0  0
    3.1614  -13.7310   25.6407 C   0  0  0  0  0  0  0  0  0  0  0  0
    1.8725  -13.2129   25.8635 N   0  0  0  0  0  0  0  0  0  0  0  0
    1.2850  -13.9516   26.7668 C   0  0  0  0  0  0  0  0  0  0  0  0
   -0.3139  -13.6111   27.2764 Cl  0  0  0  0  0  0  0  0  0  0  0  0
    2.1304  -15.2754   27.3950 S   0  0  0  0  0  0  0  0  0  0  0  0
    3.4392  -14.8594   26.3862 C   0  0  0  0  0  0  0  0  0  0  0  0
    4.8473  -15.8312   26.4269 Cl  0  0  0  0  0  0  0  0  0  0  0  0
  1  2  2  0
  2  3  1  0
  3  4  1  0
  4  5  1  0
  5  6  1  0
  5  7  1  0
  2  8  1  0
  8  9  1  0
  9 10  2  0
 10 11  1  0
 10 12  1  0
 12 13  1  0
 13 14  1  0
 13  8  2  0
M  END
>  <inchikey>  (737) 
ZRURAQYBALEGMU-UHFFFAOYSA-N

>  <tags>  (737) 
fragmenstein_placed,CpKRS_FrAncestor_bulkdock_iter2

>  <ref_pdb>  (737) 
x0485c

>  <energy_score>  (737) 
-48.81497

>  <distance_score>  (737) 
0.373181

>  <HIPPO Pose ID>  (737) 
56398

>  <ref_mols>  (737) 
x0504b

>  <smiles>  (737) 
O=C(NCC(F)F)c1nc(Cl)sc1Cl

>  <HIPPO Compound ID>  (737) 
34426

>  <alias>  (737) 
ZRURAQYBALEGMU-UHFFFAOYSA-N-P49

>  <subsites>  (737) 


>  <placement_batch>  (737) 
CpKRS_FrAncestor_bulkdock_iter2

>  <name>  (737) 
ZRURAQYBALEGMU-UHFFFAOYSA-N-P49

$$$$
ZYDMDIFFRPVXJG-UHFFFAOYSA-N-P49
     RDKit          3D

 13 13  0  0  0  0  0  0  0  0999 V2000
    4.7503  -13.3481   24.3986 O   0  0  0  0  0  0  0  0  0  0  0  0
    3.7463  -12.9368   24.8158 C   0  0  0  0  0  0  0  0  0  0  0  0
    3.0158  -11.6201   24.5282 N   0  0  0  0  0  0  0  0  0  0  0  0
    3.3177  -10.5670   23.5920 C   0  0  0  0  0  0  0  0  0  0  0  0
    4.7334  -10.0134   23.7291 C   0  0  0  0  0  0  0  0  0  0  0  0
    4.8825   -9.4355   24.9510 F   0  0  0  0  0  0  0  0  0  0  0  0
    4.9119   -9.0161   22.8210 F   0  0  0  0  0  0  0  0  0  0  0  0
    2.9377  -13.6819   25.8071 C   0  0  0  0  0  0  0  0  0  0  0  0
    1.6722  -13.1847   26.1919 N   0  0  0  0  0  0  0  0  0  0  0  0
    1.1726  -13.9537   27.1316 C   0  0  0  0  0  0  0  0  0  0  0  0
    2.0918  -15.3218   27.5751 S   0  0  0  0  0  0  0  0  0  0  0  0
    3.2905  -14.8460   26.4615 C   0  0  0  0  0  0  0  0  0  0  0  0
    4.8952  -15.8488   26.2538 Br  0  0  0  0  0  0  0  0  0  0  0  0
  1  2  2  0
  2  3  1  0
  3  4  1  0
  4  5  1  0
  5  6  1  0
  5  7  1  0
  2  8  1  0
  8  9  1  0
  9 10  2  0
 10 11  1  0
 11 12  1  0
 12 13  1  0
 12  8  2  0
M  END
>  <inchikey>  (738) 
ZYDMDIFFRPVXJG-UHFFFAOYSA-N

>  <tags>  (738) 
fragmenstein_placed,CpKRS_FrAncestor_bulkdock_iter2

>  <ref_pdb>  (738) 
x0485c

>  <energy_score>  (738) 
-43.407027

>  <distance_score>  (738) 
0.465383

>  <HIPPO Pose ID>  (738) 
56401

>  <ref_mols>  (738) 
x0504b

>  <smiles>  (738) 
O=C(NCC(F)F)c1ncsc1Br

>  <HIPPO Compound ID>  (738) 
34427

>  <alias>  (738) 
ZYDMDIFFRPVXJG-UHFFFAOYSA-N-P49

>  <subsites>  (738) 


>  <placement_batch>  (738) 
CpKRS_FrAncestor_bulkdock_iter2

>  <name>  (738) 
ZYDMDIFFRPVXJG-UHFFFAOYSA-N-P49

$$$$
JJHZIERBJLUUEI-UHFFFAOYSA-N-P48
     RDKit          3D

 16 16  0  0  0  0  0  0  0  0999 V2000
    4.9344  -13.8146   24.4934 O   0  0  0  0  0  0  0  0  0  0  0  0
    3.8736  -13.3921   24.7064 C   0  0  0  0  0  0  0  0  0  0  0  0
    3.0621  -12.3288   23.9643 N   0  0  0  0  0  0  0  0  0  0  0  0
    3.4196  -11.4852   22.8518 C   0  0  0  0  0  0  0  0  0  0  0  0
    4.6251  -10.5813   23.0802 C   0  0  0  0  0  0  0  0  0  0  0  0
    4.9359   -9.9463   21.9180 F   0  0  0  0  0  0  0  0  0  0  0  0
    4.2958   -9.5941   23.9592 F   0  0  0  0  0  0  0  0  0  0  0  0
    3.0433  -13.8870   25.8234 C   0  0  0  0  0  0  0  0  0  0  0  0
    1.7405  -13.3907   26.0036 N   0  0  0  0  0  0  0  0  0  0  0  0
    1.1842  -13.9717   27.0422 C   0  0  0  0  0  0  0  0  0  0  0  0
    2.1408  -15.1295   27.8532 S   0  0  0  0  0  0  0  0  0  0  0  0
    3.4291  -14.8374   26.7521 C   0  0  0  0  0  0  0  0  0  0  0  0
    4.7110  -15.5668   26.8807 C   0  0  0  0  0  0  0  0  0  0  0  0
    4.8107  -16.5916   25.9965 F   0  0  0  0  0  0  0  0  0  0  0  0
    4.8581  -16.1111   28.1205 F   0  0  0  0  0  0  0  0  0  0  0  0
    5.8058  -14.7858   26.7065 F   0  0  0  0  0  0  0  0  0  0  0  0
  1  2  2  0
  2  3  1  0
  3  4  1  0
  4  5  1  0
  5  6  1  0
  5  7  1  0
  2  8  1  0
  8  9  1  0
  9 10  2  0
 10 11  1  0
 11 12  1  0
 12 13  1  0
 13 14  1  0
 13 15  1  0
 13 16  1  0
 12  8  2  0
M  END
>  <inchikey>  (739) 
JJHZIERBJLUUEI-UHFFFAOYSA-N

>  <tags>  (739) 
fragmenstein_placed,CpKRS_FrAncestor_bulkdock_iter2

>  <ref_pdb>  (739) 
x0485c

>  <energy_score>  (739) 
-76.171553

>  <distance_score>  (739) 
0.420336

>  <HIPPO Pose ID>  (739) 
56403

>  <ref_mols>  (739) 
x0504a

>  <smiles>  (739) 
O=C(NCC(F)F)c1ncsc1C(F)(F)F

>  <HIPPO Compound ID>  (739) 
34428

>  <alias>  (739) 
JJHZIERBJLUUEI-UHFFFAOYSA-N-P48

>  <subsites>  (739) 


>  <placement_batch>  (739) 
CpKRS_FrAncestor_bulkdock_iter2

>  <name>  (739) 
JJHZIERBJLUUEI-UHFFFAOYSA-N-P48

$$$$
XDMHFXLVCATAMS-UHFFFAOYSA-N-P49
     RDKit          3D

 13 13  0  0  0  0  0  0  0  0999 V2000
    4.8560  -13.4995   24.3630 O   0  0  0  0  0  0  0  0  0  0  0  0
    3.8493  -13.0796   24.7651 C   0  0  0  0  0  0  0  0  0  0  0  0
    3.0712  -11.8176   24.3730 N   0  0  0  0  0  0  0  0  0  0  0  0
    3.4134  -10.7497   23.4662 C   0  0  0  0  0  0  0  0  0  0  0  0
    4.7520  -10.0810   23.7658 C   0  0  0  0  0  0  0  0  0  0  0  0
    4.6985   -9.4660   24.9769 F   0  0  0  0  0  0  0  0  0  0  0  0
    4.9696   -9.0922   22.8563 F   0  0  0  0  0  0  0  0  0  0  0  0
    3.0609  -13.7873   25.7950 C   0  0  0  0  0  0  0  0  0  0  0  0
    1.7931  -13.2988   26.1834 N   0  0  0  0  0  0  0  0  0  0  0  0
    1.3208  -14.0546   27.1491 C   0  0  0  0  0  0  0  0  0  0  0  0
    2.2712  -15.3979   27.6119 S   0  0  0  0  0  0  0  0  0  0  0  0
    3.4423  -14.9269   26.4724 C   0  0  0  0  0  0  0  0  0  0  0  0
    4.8672  -15.8663   26.3333 Cl  0  0  0  0  0  0  0  0  0  0  0  0
  1  2  2  0
  2  3  1  0
  3  4  1  0
  4  5  1  0
  5  6  1  0
  5  7  1  0
  2  8  1  0
  8  9  1  0
  9 10  2  0
 10 11  1  0
 11 12  1  0
 12 13  1  0
 12  8  2  0
M  END
>  <inchikey>  (740) 
XDMHFXLVCATAMS-UHFFFAOYSA-N

>  <tags>  (740) 
fragmenstein_placed,CpKRS_FrAncestor_bulkdock_iter2

>  <ref_pdb>  (740) 
x0485c

>  <energy_score>  (740) 
-44.333986

>  <distance_score>  (740) 
0.380096

>  <HIPPO Pose ID>  (740) 
56407

>  <ref_mols>  (740) 
x0504b

>  <smiles>  (740) 
O=C(NCC(F)F)c1ncsc1Cl

>  <HIPPO Compound ID>  (740) 
34429

>  <alias>  (740) 
XDMHFXLVCATAMS-UHFFFAOYSA-N-P49

>  <subsites>  (740) 


>  <placement_batch>  (740) 
CpKRS_FrAncestor_bulkdock_iter2

>  <name>  (740) 
XDMHFXLVCATAMS-UHFFFAOYSA-N-P49

$$$$
YPPIBCZVBSSJMD-UHFFFAOYSA-N-P49
     RDKit          3D

 14 14  0  0  0  0  0  0  0  0999 V2000
    5.3576  -13.7791   24.5286 O   0  0  0  0  0  0  0  0  0  0  0  0
    4.3566  -13.1905   24.5886 C   0  0  0  0  0  0  0  0  0  0  0  0
    3.9423  -11.8603   23.9371 N   0  0  0  0  0  0  0  0  0  0  0  0
    4.6411  -11.0205   22.9970 C   0  0  0  0  0  0  0  0  0  0  0  0
    5.3117   -9.8406   23.6882 C   0  0  0  0  0  0  0  0  0  0  0  0
    5.6160   -8.8875   22.7723 F   0  0  0  0  0  0  0  0  0  0  0  0
    4.4355   -9.2609   24.5551 F   0  0  0  0  0  0  0  0  0  0  0  0
    3.2768  -13.6612   25.4609 C   0  0  0  0  0  0  0  0  0  0  0  0
    1.7460  -12.8692   25.5068 S   0  0  0  0  0  0  0  0  0  0  0  0
    1.2514  -13.9376   26.7059 C   0  0  0  0  0  0  0  0  0  0  0  0
   -0.3227  -13.7560   27.3397 Cl  0  0  0  0  0  0  0  0  0  0  0  0
    2.0768  -14.8719   27.0814 N   0  0  0  0  0  0  0  0  0  0  0  0
    3.2592  -14.7195   26.3627 C   0  0  0  0  0  0  0  0  0  0  0  0
    4.5410  -15.8157   26.6609 Cl  0  0  0  0  0  0  0  0  0  0  0  0
  1  2  2  0
  2  3  1  0
  3  4  1  0
  4  5  1  0
  5  6  1  0
  5  7  1  0
  2  8  1  0
  8  9  1  0
  9 10  1  0
 10 11  1  0
 10 12  2  0
 12 13  1  0
 13 14  1  0
 13  8  2  0
M  END
>  <inchikey>  (741) 
YPPIBCZVBSSJMD-UHFFFAOYSA-N

>  <tags>  (741) 
fragmenstein_placed,CpKRS_FrAncestor_bulkdock_iter2

>  <ref_pdb>  (741) 
x0485c

>  <energy_score>  (741) 
-39.939836

>  <distance_score>  (741) 
0.558637

>  <HIPPO Pose ID>  (741) 
56410

>  <ref_mols>  (741) 
x0504b

>  <smiles>  (741) 
O=C(NCC(F)F)c1sc(Cl)nc1Cl

>  <HIPPO Compound ID>  (741) 
34430

>  <alias>  (741) 
YPPIBCZVBSSJMD-UHFFFAOYSA-N-P49

>  <subsites>  (741) 


>  <placement_batch>  (741) 
CpKRS_FrAncestor_bulkdock_iter2

>  <name>  (741) 
YPPIBCZVBSSJMD-UHFFFAOYSA-N-P49

$$$$
KGNIZOSZVKGRAM-UHFFFAOYSA-N-P48
     RDKit          3D

 13 13  0  0  0  0  0  0  0  0999 V2000
    4.9425  -13.3138   24.8635 O   0  0  0  0  0  0  0  0  0  0  0  0
    3.8060  -13.0694   24.8545 C   0  0  0  0  0  0  0  0  0  0  0  0
    2.9862  -12.1877   23.9026 N   0  0  0  0  0  0  0  0  0  0  0  0
    3.4066  -11.3426   22.8142 C   0  0  0  0  0  0  0  0  0  0  0  0
    4.6295  -10.4732   23.0835 C   0  0  0  0  0  0  0  0  0  0  0  0
    4.9752   -9.8320   21.9336 F   0  0  0  0  0  0  0  0  0  0  0  0
    4.2963   -9.4882   23.9636 F   0  0  0  0  0  0  0  0  0  0  0  0
    2.9101  -13.6878   25.8445 C   0  0  0  0  0  0  0  0  0  0  0  0
    1.2897  -13.1507   26.0997 S   0  0  0  0  0  0  0  0  0  0  0  0
    1.0972  -14.2958   27.3515 C   0  0  0  0  0  0  0  0  0  0  0  0
    2.1219  -15.0825   27.5691 N   0  0  0  0  0  0  0  0  0  0  0  0
    3.1525  -14.7408   26.7095 C   0  0  0  0  0  0  0  0  0  0  0  0
    4.7474  -15.7559   26.7672 Br  0  0  0  0  0  0  0  0  0  0  0  0
  1  2  2  0
  2  3  1  0
  3  4  1  0
  4  5  1  0
  5  6  1  0
  5  7  1  0
  2  8  1  0
  8  9  1  0
  9 10  1  0
 10 11  2  0
 11 12  1  0
 12 13  1  0
 12  8  2  0
M  END
>  <inchikey>  (742) 
KGNIZOSZVKGRAM-UHFFFAOYSA-N

>  <tags>  (742) 
fragmenstein_placed,CpKRS_FrAncestor_bulkdock_iter2

>  <ref_pdb>  (742) 
x0485c

>  <energy_score>  (742) 
-51.281681

>  <distance_score>  (742) 
0.396519

>  <HIPPO Pose ID>  (742) 
56412

>  <ref_mols>  (742) 
x0504a

>  <smiles>  (742) 
O=C(NCC(F)F)c1scnc1Br

>  <HIPPO Compound ID>  (742) 
34431

>  <alias>  (742) 
KGNIZOSZVKGRAM-UHFFFAOYSA-N-P48

>  <subsites>  (742) 


>  <placement_batch>  (742) 
CpKRS_FrAncestor_bulkdock_iter2

>  <name>  (742) 
KGNIZOSZVKGRAM-UHFFFAOYSA-N-P48

$$$$
OBEPPTQKEHHJDD-UHFFFAOYSA-N-P47
     RDKit          3D

 16 16  0  0  0  0  0  0  0  0999 V2000
    3.5206    4.5977   42.4939 O   0  0  0  0  0  0  0  0  0  0  0  0
    3.0104    5.1469   43.3810 C   0  0  0  0  0  0  0  0  0  0  0  0
    2.4151    6.5549   43.4660 N   0  0  0  0  0  0  0  0  0  0  0  0
    2.2340    7.5605   42.4450 C   0  0  0  0  0  0  0  0  0  0  0  0
    3.4849    7.7376   41.5946 C   0  0  0  0  0  0  0  0  0  0  0  0
    3.3372    8.7966   40.7612 F   0  0  0  0  0  0  0  0  0  0  0  0
    4.5386    8.0230   42.4086 F   0  0  0  0  0  0  0  0  0  0  0  0
    2.9794    4.4840   44.6858 C   0  0  0  0  0  0  0  0  0  0  0  0
    2.1810    5.1428   46.0538 S   0  0  0  0  0  0  0  0  0  0  0  0
    2.6740    3.8036   46.9874 C   0  0  0  0  0  0  0  0  0  0  0  0
    3.3923    2.8985   46.3635 N   0  0  0  0  0  0  0  0  0  0  0  0
    3.5733    3.2695   45.0204 C   0  0  0  0  0  0  0  0  0  0  0  0
    4.3426    2.3749   44.0766 C   0  0  0  0  0  0  0  0  0  0  0  0
    4.8069    1.2536   44.6982 F   0  0  0  0  0  0  0  0  0  0  0  0
    5.4387    2.9854   43.5586 F   0  0  0  0  0  0  0  0  0  0  0  0
    3.5783    1.9395   43.0449 F   0  0  0  0  0  0  0  0  0  0  0  0
  1  2  2  0
  2  3  1  0
  3  4  1  0
  4  5  1  0
  5  6  1  0
  5  7  1  0
  2  8  1  0
  8  9  1  0
  9 10  1  0
 10 11  2  0
 11 12  1  0
 12 13  1  0
 13 14  1  0
 13 15  1  0
 13 16  1  0
 12  8  2  0
M  END
>  <inchikey>  (743) 
OBEPPTQKEHHJDD-UHFFFAOYSA-N

>  <tags>  (743) 
fragmenstein_placed,CpKRS_FrAncestor_bulkdock_iter2

>  <ref_pdb>  (743) 
x0485c

>  <energy_score>  (743) 
-43.184062

>  <distance_score>  (743) 
0.322316

>  <HIPPO Pose ID>  (743) 
56417

>  <ref_mols>  (743) 
x0504c

>  <smiles>  (743) 
O=C(NCC(F)F)c1scnc1C(F)(F)F

>  <HIPPO Compound ID>  (743) 
34432

>  <alias>  (743) 
OBEPPTQKEHHJDD-UHFFFAOYSA-N-P47

>  <subsites>  (743) 


>  <placement_batch>  (743) 
CpKRS_FrAncestor_bulkdock_iter2

>  <name>  (743) 
OBEPPTQKEHHJDD-UHFFFAOYSA-N-P47

$$$$
UJEZDBCANPOSQI-UHFFFAOYSA-N-P49
     RDKit          3D

 13 13  0  0  0  0  0  0  0  0999 V2000
    5.3096  -13.6502   24.7876 O   0  0  0  0  0  0  0  0  0  0  0  0
    4.2337  -13.2092   24.7766 C   0  0  0  0  0  0  0  0  0  0  0  0
    3.6483  -12.0315   23.9809 N   0  0  0  0  0  0  0  0  0  0  0  0
    4.2893  -11.0844   23.0984 C   0  0  0  0  0  0  0  0  0  0  0  0
    4.4156   -9.7001   23.7225 C   0  0  0  0  0  0  0  0  0  0  0  0
    4.9535   -8.8334   22.8281 F   0  0  0  0  0  0  0  0  0  0  0  0
    5.2398   -9.7186   24.7962 F   0  0  0  0  0  0  0  0  0  0  0  0
    3.2065  -13.7796   25.6584 C   0  0  0  0  0  0  0  0  0  0  0  0
    1.6573  -13.0504   25.8811 S   0  0  0  0  0  0  0  0  0  0  0  0
    1.2848  -14.2181   27.0645 C   0  0  0  0  0  0  0  0  0  0  0  0
    2.1821  -15.1465   27.2683 N   0  0  0  0  0  0  0  0  0  0  0  0
    3.2924  -14.9014   26.4705 C   0  0  0  0  0  0  0  0  0  0  0  0
    4.6158  -15.9817   26.5660 Cl  0  0  0  0  0  0  0  0  0  0  0  0
  1  2  2  0
  2  3  1  0
  3  4  1  0
  4  5  1  0
  5  6  1  0
  5  7  1  0
  2  8  1  0
  8  9  1  0
  9 10  1  0
 10 11  2  0
 11 12  1  0
 12 13  1  0
 12  8  2  0
M  END
>  <inchikey>  (744) 
UJEZDBCANPOSQI-UHFFFAOYSA-N

>  <tags>  (744) 
fragmenstein_placed,CpKRS_FrAncestor_bulkdock_iter2

>  <ref_pdb>  (744) 
x0485c

>  <energy_score>  (744) 
-54.634688

>  <distance_score>  (744) 
0.344622

>  <HIPPO Pose ID>  (744) 
56419

>  <ref_mols>  (744) 
x0504b

>  <smiles>  (744) 
O=C(NCC(F)F)c1scnc1Cl

>  <HIPPO Compound ID>  (744) 
34433

>  <alias>  (744) 
UJEZDBCANPOSQI-UHFFFAOYSA-N-P49

>  <subsites>  (744) 


>  <placement_batch>  (744) 
CpKRS_FrAncestor_bulkdock_iter2

>  <name>  (744) 
UJEZDBCANPOSQI-UHFFFAOYSA-N-P49

$$$$
KPRBDKDTLAWCJV-UHFFFAOYSA-N-P48
     RDKit          3D

 17 17  0  0  0  0  0  0  0  0999 V2000
    5.6030  -13.6624   24.7811 O   0  0  0  0  0  0  0  0  0  0  0  0
    4.4872  -13.3353   24.7519 C   0  0  0  0  0  0  0  0  0  0  0  0
    3.7571  -12.3673   23.8056 N   0  0  0  0  0  0  0  0  0  0  0  0
    4.2279  -11.6684   22.6331 C   0  0  0  0  0  0  0  0  0  0  0  0
    4.3602  -10.1483   22.7126 C   0  0  0  0  0  0  0  0  0  0  0  0
    5.1057   -9.7429   21.6416 F   0  0  0  0  0  0  0  0  0  0  0  0
    3.1276   -9.5683   22.5334 F   0  0  0  0  0  0  0  0  0  0  0  0
    4.9619   -9.6255   24.0052 C   0  0  0  0  0  0  0  0  0  0  0  0
    4.0758   -9.7406   25.0266 F   0  0  0  0  0  0  0  0  0  0  0  0
    6.0956  -10.2585   24.3659 F   0  0  0  0  0  0  0  0  0  0  0  0
    5.2569   -8.3043   23.9137 F   0  0  0  0  0  0  0  0  0  0  0  0
    3.5744  -13.8995   25.7377 C   0  0  0  0  0  0  0  0  0  0  0  0
    3.8561  -14.9309   26.6197 C   0  0  0  0  0  0  0  0  0  0  0  0
    2.8759  -15.2231   27.5430 N   0  0  0  0  0  0  0  0  0  0  0  0
    1.8891  -14.3885   27.3525 C   0  0  0  0  0  0  0  0  0  0  0  0
    0.5718  -14.3039   28.4251 Cl  0  0  0  0  0  0  0  0  0  0  0  0
    1.9827  -13.3308   26.0299 S   0  0  0  0  0  0  0  0  0  0  0  0
  1  2  2  0
  2  3  1  0
  3  4  1  0
  4  5  1  0
  5  6  1  0
  5  7  1  0
  5  8  1  0
  8  9  1  0
  8 10  1  0
  8 11  1  0
  2 12  1  0
 12 13  2  0
 13 14  1  0
 14 15  2  0
 15 16  1  0
 15 17  1  0
 17 12  1  0
M  END
>  <inchikey>  (745) 
KPRBDKDTLAWCJV-UHFFFAOYSA-N

>  <tags>  (745) 
fragmenstein_placed,CpKRS_FrAncestor_bulkdock_iter2

>  <ref_pdb>  (745) 
x0485c

>  <energy_score>  (745) 
-62.731402

>  <distance_score>  (745) 
0.54422

>  <HIPPO Pose ID>  (745) 
56421

>  <ref_mols>  (745) 
x0504a

>  <smiles>  (745) 
O=C(NCC(F)(F)C(F)(F)F)c1cnc(Cl)s1

>  <HIPPO Compound ID>  (745) 
34434

>  <alias>  (745) 
KPRBDKDTLAWCJV-UHFFFAOYSA-N-P48

>  <subsites>  (745) 


>  <placement_batch>  (745) 
CpKRS_FrAncestor_bulkdock_iter2

>  <name>  (745) 
KPRBDKDTLAWCJV-UHFFFAOYSA-N-P48

$$$$
SWUPZUDNLVVNDS-UHFFFAOYSA-N-P49
     RDKit          3D

 16 16  0  0  0  0  0  0  0  0999 V2000
    5.0834  -13.8176   24.5445 O   0  0  0  0  0  0  0  0  0  0  0  0
    4.0714  -13.3358   24.8567 C   0  0  0  0  0  0  0  0  0  0  0  0
    3.4014  -12.0347   24.3879 N   0  0  0  0  0  0  0  0  0  0  0  0
    3.7924  -11.0926   23.3596 C   0  0  0  0  0  0  0  0  0  0  0  0
    4.7793  -10.0328   23.8561 C   0  0  0  0  0  0  0  0  0  0  0  0
    5.9569  -10.6095   24.2005 F   0  0  0  0  0  0  0  0  0  0  0  0
    4.2922   -9.4630   24.9967 F   0  0  0  0  0  0  0  0  0  0  0  0
    4.9738   -8.9636   22.7897 C   0  0  0  0  0  0  0  0  0  0  0  0
    5.8147   -7.9793   23.1819 F   0  0  0  0  0  0  0  0  0  0  0  0
    3.7788   -8.3679   22.4985 F   0  0  0  0  0  0  0  0  0  0  0  0
    5.4409   -9.4675   21.6248 F   0  0  0  0  0  0  0  0  0  0  0  0
    3.2438  -13.9913   25.8718 C   0  0  0  0  0  0  0  0  0  0  0  0
    3.6020  -15.0654   26.6665 C   0  0  0  0  0  0  0  0  0  0  0  0
    2.6602  -15.4785   27.5901 N   0  0  0  0  0  0  0  0  0  0  0  0
    1.5947  -14.7232   27.4815 C   0  0  0  0  0  0  0  0  0  0  0  0
    1.6381  -13.5161   26.2690 S   0  0  0  0  0  0  0  0  0  0  0  0
  1  2  2  0
  2  3  1  0
  3  4  1  0
  4  5  1  0
  5  6  1  0
  5  7  1  0
  5  8  1  0
  8  9  1  0
  8 10  1  0
  8 11  1  0
  2 12  1  0
 12 13  2  0
 13 14  1  0
 14 15  2  0
 15 16  1  0
 16 12  1  0
M  END
>  <inchikey>  (746) 
SWUPZUDNLVVNDS-UHFFFAOYSA-N

>  <tags>  (746) 
fragmenstein_placed,CpKRS_FrAncestor_bulkdock_iter2

>  <ref_pdb>  (746) 
x0485c

>  <energy_score>  (746) 
-40.03266

>  <distance_score>  (746) 
0.354269

>  <HIPPO Pose ID>  (746) 
56425

>  <ref_mols>  (746) 
x0504b

>  <smiles>  (746) 
O=C(NCC(F)(F)C(F)(F)F)c1cncs1

>  <HIPPO Compound ID>  (746) 
34435

>  <alias>  (746) 
SWUPZUDNLVVNDS-UHFFFAOYSA-N-P49

>  <subsites>  (746) 


>  <placement_batch>  (746) 
CpKRS_FrAncestor_bulkdock_iter2

>  <name>  (746) 
SWUPZUDNLVVNDS-UHFFFAOYSA-N-P49

$$$$
URYUIHUIHJMWIG-UHFFFAOYSA-N-P47
     RDKit          3D

 17 17  0  0  0  0  0  0  0  0999 V2000
    3.8507    4.6917   42.5006 O   0  0  0  0  0  0  0  0  0  0  0  0
    3.1343    5.1753   43.2770 C   0  0  0  0  0  0  0  0  0  0  0  0
    2.2315    6.4098   43.1620 N   0  0  0  0  0  0  0  0  0  0  0  0
    2.0883    7.3733   42.0919 C   0  0  0  0  0  0  0  0  0  0  0  0
    3.2953    8.3000   41.9377 C   0  0  0  0  0  0  0  0  0  0  0  0
    4.3992    7.7641   42.5342 F   0  0  0  0  0  0  0  0  0  0  0  0
    3.0365    9.4533   42.6211 F   0  0  0  0  0  0  0  0  0  0  0  0
    3.5561    8.6176   40.4736 C   0  0  0  0  0  0  0  0  0  0  0  0
    4.5768    9.4927   40.3202 F   0  0  0  0  0  0  0  0  0  0  0  0
    3.8592    7.5129   39.7528 F   0  0  0  0  0  0  0  0  0  0  0  0
    2.4600    9.1702   39.8920 F   0  0  0  0  0  0  0  0  0  0  0  0
    3.0124    4.5536   44.5995 C   0  0  0  0  0  0  0  0  0  0  0  0
    2.1655    5.2743   45.9109 S   0  0  0  0  0  0  0  0  0  0  0  0
    2.5835    3.9498   46.9080 C   0  0  0  0  0  0  0  0  0  0  0  0
    3.3099    3.0130   46.3452 N   0  0  0  0  0  0  0  0  0  0  0  0
    3.5571    3.3490   45.0220 C   0  0  0  0  0  0  0  0  0  0  0  0
    4.4695    2.2575   44.0574 Cl  0  0  0  0  0  0  0  0  0  0  0  0
  1  2  2  0
  2  3  1  0
  3  4  1  0
  4  5  1  0
  5  6  1  0
  5  7  1  0
  5  8  1  0
  8  9  1  0
  8 10  1  0
  8 11  1  0
  2 12  1  0
 12 13  1  0
 13 14  1  0
 14 15  2  0
 15 16  1  0
 16 17  1  0
 16 12  2  0
M  END
>  <inchikey>  (747) 
URYUIHUIHJMWIG-UHFFFAOYSA-N

>  <tags>  (747) 
fragmenstein_placed,CpKRS_FrAncestor_bulkdock_iter2

>  <ref_pdb>  (747) 
x0485c

>  <energy_score>  (747) 
-53.020032

>  <distance_score>  (747) 
0.363442

>  <HIPPO Pose ID>  (747) 
56429

>  <ref_mols>  (747) 
x0504c

>  <smiles>  (747) 
O=C(NCC(F)(F)C(F)(F)F)c1scnc1Cl

>  <HIPPO Compound ID>  (747) 
34436

>  <alias>  (747) 
URYUIHUIHJMWIG-UHFFFAOYSA-N-P47

>  <subsites>  (747) 


>  <placement_batch>  (747) 
CpKRS_FrAncestor_bulkdock_iter2

>  <name>  (747) 
URYUIHUIHJMWIG-UHFFFAOYSA-N-P47

$$$$
PQWJCMXIAYQIKF-UHFFFAOYSA-N-P48
     RDKit          3D

 17 17  0  0  0  0  0  0  0  0999 V2000
    5.6521  -13.6055   24.9801 O   0  0  0  0  0  0  0  0  0  0  0  0
    4.5120  -13.3817   24.9261 C   0  0  0  0  0  0  0  0  0  0  0  0
    3.7163  -12.4977   23.9544 N   0  0  0  0  0  0  0  0  0  0  0  0
    4.1451  -11.7713   22.7765 C   0  0  0  0  0  0  0  0  0  0  0  0
    4.3280  -10.2586   22.9526 C   0  0  0  0  0  0  0  0  0  0  0  0
    4.8418   -9.7253   21.8129 F   0  0  0  0  0  0  0  0  0  0  0  0
    5.2063   -9.9718   23.9421 F   0  0  0  0  0  0  0  0  0  0  0  0
    2.7887   -9.4228   23.3149 Cl  0  0  0  0  0  0  0  0  0  0  0  0
    3.6243  -13.9929   25.9140 C   0  0  0  0  0  0  0  0  0  0  0  0
    3.9520  -15.0035   26.7966 C   0  0  0  0  0  0  0  0  0  0  0  0
    2.9718  -15.3685   27.6952 N   0  0  0  0  0  0  0  0  0  0  0  0
    1.9038  -14.6109   27.5207 C   0  0  0  0  0  0  0  0  0  0  0  0
    0.6533  -14.6475   28.3443 C   0  0  0  0  0  0  0  0  0  0  0  0
   -0.4400  -14.7496   27.5401 F   0  0  0  0  0  0  0  0  0  0  0  0
    0.5001  -13.5289   29.0959 F   0  0  0  0  0  0  0  0  0  0  0  0
    0.6270  -15.6901   29.2134 F   0  0  0  0  0  0  0  0  0  0  0  0
    2.0034  -13.5121   26.1897 S   0  0  0  0  0  0  0  0  0  0  0  0
  1  2  2  0
  2  3  1  0
  3  4  1  0
  4  5  1  0
  5  6  1  0
  5  7  1  0
  5  8  1  0
  2  9  1  0
  9 10  2  0
 10 11  1  0
 11 12  2  0
 12 13  1  0
 13 14  1  0
 13 15  1  0
 13 16  1  0
 12 17  1  0
 17  9  1  0
M  END
>  <inchikey>  (748) 
PQWJCMXIAYQIKF-UHFFFAOYSA-N

>  <tags>  (748) 
fragmenstein_placed,CpKRS_FrAncestor_bulkdock_iter2

>  <ref_pdb>  (748) 
x0485c

>  <energy_score>  (748) 
-47.100921

>  <distance_score>  (748) 
0.565704

>  <HIPPO Pose ID>  (748) 
56430

>  <ref_mols>  (748) 
x0504a

>  <smiles>  (748) 
O=C(NCC(F)(F)Cl)c1cnc(C(F)(F)F)s1

>  <HIPPO Compound ID>  (748) 
34437

>  <alias>  (748) 
PQWJCMXIAYQIKF-UHFFFAOYSA-N-P48

>  <subsites>  (748) 


>  <placement_batch>  (748) 
CpKRS_FrAncestor_bulkdock_iter2

>  <name>  (748) 
PQWJCMXIAYQIKF-UHFFFAOYSA-N-P48

$$$$
PWJNIIXKMVXSBN-UHFFFAOYSA-N-P48
     RDKit          3D

 14 14  0  0  0  0  0  0  0  0999 V2000
    5.4831  -13.3674   25.0749 O   0  0  0  0  0  0  0  0  0  0  0  0
    4.3816  -13.1113   24.8016 C   0  0  0  0  0  0  0  0  0  0  0  0
    3.8136  -12.2224   23.6828 N   0  0  0  0  0  0  0  0  0  0  0  0
    4.4803  -11.5336   22.6011 C   0  0  0  0  0  0  0  0  0  0  0  0
    4.6108  -10.0208   22.8046 C   0  0  0  0  0  0  0  0  0  0  0  0
    5.4123   -9.7343   23.8575 F   0  0  0  0  0  0  0  0  0  0  0  0
    5.1864   -9.4644   21.7084 F   0  0  0  0  0  0  0  0  0  0  0  0
    3.0354   -9.2156   23.0827 Cl  0  0  0  0  0  0  0  0  0  0  0  0
    3.2835  -13.6446   25.6052 C   0  0  0  0  0  0  0  0  0  0  0  0
    3.3304  -14.6013   26.6066 C   0  0  0  0  0  0  0  0  0  0  0  0
    2.1170  -14.9164   27.2025 N   0  0  0  0  0  0  0  0  0  0  0  0
    1.1933  -14.1728   26.6511 C   0  0  0  0  0  0  0  0  0  0  0  0
   -0.4714  -14.2886   27.0094 Cl  0  0  0  0  0  0  0  0  0  0  0  0
    1.6664  -13.0877   25.4468 S   0  0  0  0  0  0  0  0  0  0  0  0
  1  2  2  0
  2  3  1  0
  3  4  1  0
  4  5  1  0
  5  6  1  0
  5  7  1  0
  5  8  1  0
  2  9  1  0
  9 10  2  0
 10 11  1  0
 11 12  2  0
 12 13  1  0
 12 14  1  0
 14  9  1  0
M  END
>  <inchikey>  (749) 
PWJNIIXKMVXSBN-UHFFFAOYSA-N

>  <tags>  (749) 
fragmenstein_placed,CpKRS_FrAncestor_bulkdock_iter2

>  <ref_pdb>  (749) 
x0485c

>  <energy_score>  (749) 
-45.670081

>  <distance_score>  (749) 
0.57977

>  <HIPPO Pose ID>  (749) 
56433

>  <ref_mols>  (749) 
x0504a

>  <smiles>  (749) 
O=C(NCC(F)(F)Cl)c1cnc(Cl)s1

>  <HIPPO Compound ID>  (749) 
34438

>  <alias>  (749) 
PWJNIIXKMVXSBN-UHFFFAOYSA-N-P48

>  <subsites>  (749) 


>  <placement_batch>  (749) 
CpKRS_FrAncestor_bulkdock_iter2

>  <name>  (749) 
PWJNIIXKMVXSBN-UHFFFAOYSA-N-P48

$$$$
FRFZSCWOEBGTQM-UHFFFAOYSA-N-P48
     RDKit          3D

 13 13  0  0  0  0  0  0  0  0999 V2000
    5.3342  -13.6300   25.1453 O   0  0  0  0  0  0  0  0  0  0  0  0
    4.2156  -13.3588   24.9731 C   0  0  0  0  0  0  0  0  0  0  0  0
    3.5496  -12.5414   23.8543 N   0  0  0  0  0  0  0  0  0  0  0  0
    4.1340  -11.7998   22.7544 C   0  0  0  0  0  0  0  0  0  0  0  0
    4.3266  -10.2941   22.9786 C   0  0  0  0  0  0  0  0  0  0  0  0
    5.1625  -10.0426   24.0131 F   0  0  0  0  0  0  0  0  0  0  0  0
    4.8976   -9.7399   21.8761 F   0  0  0  0  0  0  0  0  0  0  0  0
    2.7834   -9.4442   23.2912 Cl  0  0  0  0  0  0  0  0  0  0  0  0
    3.2024  -13.8595   25.9072 C   0  0  0  0  0  0  0  0  0  0  0  0
    3.3824  -14.8003   26.9060 C   0  0  0  0  0  0  0  0  0  0  0  0
    2.2752  -15.0819   27.6875 N   0  0  0  0  0  0  0  0  0  0  0  0
    1.2662  -14.3455   27.2827 C   0  0  0  0  0  0  0  0  0  0  0  0
    1.5717  -13.3183   25.9455 S   0  0  0  0  0  0  0  0  0  0  0  0
  1  2  2  0
  2  3  1  0
  3  4  1  0
  4  5  1  0
  5  6  1  0
  5  7  1  0
  5  8  1  0
  2  9  1  0
  9 10  2  0
 10 11  1  0
 11 12  2  0
 12 13  1  0
 13  9  1  0
M  END
>  <inchikey>  (750) 
FRFZSCWOEBGTQM-UHFFFAOYSA-N

>  <tags>  (750) 
fragmenstein_placed,CpKRS_FrAncestor_bulkdock_iter2

>  <ref_pdb>  (750) 
x0485c

>  <energy_score>  (750) 
-61.820053

>  <distance_score>  (750) 
0.379443

>  <HIPPO Pose ID>  (750) 
56436

>  <ref_mols>  (750) 
x0504a

>  <smiles>  (750) 
O=C(NCC(F)(F)Cl)c1cncs1

>  <HIPPO Compound ID>  (750) 
34439

>  <alias>  (750) 
FRFZSCWOEBGTQM-UHFFFAOYSA-N-P48

>  <subsites>  (750) 


>  <placement_batch>  (750) 
CpKRS_FrAncestor_bulkdock_iter2

>  <name>  (750) 
FRFZSCWOEBGTQM-UHFFFAOYSA-N-P48

$$$$
OUXYWNDZSDIEQS-UHFFFAOYSA-N-P49
     RDKit          3D

 13 13  0  0  0  0  0  0  0  0999 V2000
    5.4142  -13.8374   24.9483 O   0  0  0  0  0  0  0  0  0  0  0  0
    4.3283  -13.4205   24.9488 C   0  0  0  0  0  0  0  0  0  0  0  0
    3.7166  -12.2403   24.1854 N   0  0  0  0  0  0  0  0  0  0  0  0
    4.2906  -11.3719   23.1784 C   0  0  0  0  0  0  0  0  0  0  0  0
    4.3944   -9.8938   23.5745 C   0  0  0  0  0  0  0  0  0  0  0  0
    4.9662   -9.7503   24.7962 F   0  0  0  0  0  0  0  0  0  0  0  0
    5.1984   -9.2355   22.6978 F   0  0  0  0  0  0  0  0  0  0  0  0
    2.8012   -9.0976   23.5695 Cl  0  0  0  0  0  0  0  0  0  0  0  0
    3.2906  -13.9845   25.8342 C   0  0  0  0  0  0  0  0  0  0  0  0
    3.5012  -15.0547   26.6868 C   0  0  0  0  0  0  0  0  0  0  0  0
    2.0924  -15.3707   27.6065 S   0  0  0  0  0  0  0  0  0  0  0  0
    1.3051  -14.0792   26.8058 C   0  0  0  0  0  0  0  0  0  0  0  0
    1.9993  -13.4361   25.8940 N   0  0  0  0  0  0  0  0  0  0  0  0
  1  2  2  0
  2  3  1  0
  3  4  1  0
  4  5  1  0
  5  6  1  0
  5  7  1  0
  5  8  1  0
  2  9  1  0
  9 10  2  0
 10 11  1  0
 11 12  1  0
 12 13  2  0
 13  9  1  0
M  END
>  <inchikey>  (751) 
OUXYWNDZSDIEQS-UHFFFAOYSA-N

>  <tags>  (751) 
fragmenstein_placed,CpKRS_FrAncestor_bulkdock_iter2

>  <ref_pdb>  (751) 
x0485c

>  <energy_score>  (751) 
-64.835184

>  <distance_score>  (751) 
0.43088

>  <HIPPO Pose ID>  (751) 
56440

>  <ref_mols>  (751) 
x0504b

>  <smiles>  (751) 
O=C(NCC(F)(F)Cl)c1cscn1

>  <HIPPO Compound ID>  (751) 
34440

>  <alias>  (751) 
OUXYWNDZSDIEQS-UHFFFAOYSA-N-P49

>  <subsites>  (751) 


>  <placement_batch>  (751) 
CpKRS_FrAncestor_bulkdock_iter2

>  <name>  (751) 
OUXYWNDZSDIEQS-UHFFFAOYSA-N-P49

$$$$
SYYLIAWMMGYZRQ-UHFFFAOYSA-N-P48
     RDKit          3D

 17 17  0  0  0  0  0  0  0  0999 V2000
    5.1960  -14.0993   24.6929 O   0  0  0  0  0  0  0  0  0  0  0  0
    4.1896  -13.5245   24.7758 C   0  0  0  0  0  0  0  0  0  0  0  0
    3.6483  -12.3485   23.9592 N   0  0  0  0  0  0  0  0  0  0  0  0
    4.1921  -11.6825   22.7951 C   0  0  0  0  0  0  0  0  0  0  0  0
    4.3757  -10.1676   22.9275 C   0  0  0  0  0  0  0  0  0  0  0  0
    4.9267   -9.6726   21.7884 F   0  0  0  0  0  0  0  0  0  0  0  0
    5.2310   -9.8622   23.9334 F   0  0  0  0  0  0  0  0  0  0  0  0
    2.8376   -9.3052   23.2279 Cl  0  0  0  0  0  0  0  0  0  0  0  0
    3.1722  -13.8767   25.7844 C   0  0  0  0  0  0  0  0  0  0  0  0
    1.9333  -13.2148   25.7958 N   0  0  0  0  0  0  0  0  0  0  0  0
    1.2039  -13.6634   26.7926 C   0  0  0  0  0  0  0  0  0  0  0  0
    1.9025  -14.9032   27.7347 S   0  0  0  0  0  0  0  0  0  0  0  0
    3.3213  -14.8386   26.7677 C   0  0  0  0  0  0  0  0  0  0  0  0
    4.4700  -15.7333   27.0387 C   0  0  0  0  0  0  0  0  0  0  0  0
    5.6653  -15.0934   27.0680 F   0  0  0  0  0  0  0  0  0  0  0  0
    4.5726  -16.7214   26.1133 F   0  0  0  0  0  0  0  0  0  0  0  0
    4.3613  -16.3478   28.2489 F   0  0  0  0  0  0  0  0  0  0  0  0
  1  2  2  0
  2  3  1  0
  3  4  1  0
  4  5  1  0
  5  6  1  0
  5  7  1  0
  5  8  1  0
  2  9  1  0
  9 10  1  0
 10 11  2  0
 11 12  1  0
 12 13  1  0
 13 14  1  0
 14 15  1  0
 14 16  1  0
 14 17  1  0
 13  9  2  0
M  END
>  <inchikey>  (752) 
SYYLIAWMMGYZRQ-UHFFFAOYSA-N

>  <tags>  (752) 
fragmenstein_placed,CpKRS_FrAncestor_bulkdock_iter2

>  <ref_pdb>  (752) 
x0485c

>  <energy_score>  (752) 
-57.269783

>  <distance_score>  (752) 
0.450024

>  <HIPPO Pose ID>  (752) 
56442

>  <ref_mols>  (752) 
x0504a

>  <smiles>  (752) 
O=C(NCC(F)(F)Cl)c1ncsc1C(F)(F)F

>  <HIPPO Compound ID>  (752) 
34441

>  <alias>  (752) 
SYYLIAWMMGYZRQ-UHFFFAOYSA-N-P48

>  <subsites>  (752) 


>  <placement_batch>  (752) 
CpKRS_FrAncestor_bulkdock_iter2

>  <name>  (752) 
SYYLIAWMMGYZRQ-UHFFFAOYSA-N-P48

$$$$
LUVZMBPYWSUBLT-UHFFFAOYSA-N-P49
     RDKit          3D

 14 14  0  0  0  0  0  0  0  0999 V2000
    5.2340  -13.9533   24.6279 O   0  0  0  0  0  0  0  0  0  0  0  0
    4.2305  -13.3858   24.7715 C   0  0  0  0  0  0  0  0  0  0  0  0
    3.7382  -12.0714   24.1619 N   0  0  0  0  0  0  0  0  0  0  0  0
    4.3406  -11.2139   23.1642 C   0  0  0  0  0  0  0  0  0  0  0  0
    4.4079   -9.7378   23.5580 C   0  0  0  0  0  0  0  0  0  0  0  0
    4.9673   -9.5865   24.7851 F   0  0  0  0  0  0  0  0  0  0  0  0
    5.1993   -9.0596   22.6873 F   0  0  0  0  0  0  0  0  0  0  0  0
    2.7912   -8.9913   23.5469 Cl  0  0  0  0  0  0  0  0  0  0  0  0
    3.1856  -13.8705   25.6937 C   0  0  0  0  0  0  0  0  0  0  0  0
    1.9670  -13.1746   25.8375 N   0  0  0  0  0  0  0  0  0  0  0  0
    1.2467  -13.7594   26.7697 C   0  0  0  0  0  0  0  0  0  0  0  0
    1.9088  -15.1674   27.4824 S   0  0  0  0  0  0  0  0  0  0  0  0
    3.2819  -14.9832   26.4996 C   0  0  0  0  0  0  0  0  0  0  0  0
    4.5506  -16.1207   26.6271 Cl  0  0  0  0  0  0  0  0  0  0  0  0
  1  2  2  0
  2  3  1  0
  3  4  1  0
  4  5  1  0
  5  6  1  0
  5  7  1  0
  5  8  1  0
  2  9  1  0
  9 10  1  0
 10 11  2  0
 11 12  1  0
 12 13  1  0
 13 14  1  0
 13  9  2  0
M  END
>  <inchikey>  (753) 
LUVZMBPYWSUBLT-UHFFFAOYSA-N

>  <tags>  (753) 
fragmenstein_placed,CpKRS_FrAncestor_bulkdock_iter2

>  <ref_pdb>  (753) 
x0485c

>  <energy_score>  (753) 
-16.482721

>  <distance_score>  (753) 
0.431926

>  <HIPPO Pose ID>  (753) 
56446

>  <ref_mols>  (753) 
x0504b

>  <smiles>  (753) 
O=C(NCC(F)(F)Cl)c1ncsc1Cl

>  <HIPPO Compound ID>  (753) 
34442

>  <alias>  (753) 
LUVZMBPYWSUBLT-UHFFFAOYSA-N-P49

>  <subsites>  (753) 


>  <placement_batch>  (753) 
CpKRS_FrAncestor_bulkdock_iter2

>  <name>  (753) 
LUVZMBPYWSUBLT-UHFFFAOYSA-N-P49

$$$$
RPFPVYPJDMNCEI-UHFFFAOYSA-N-P47
     RDKit          3D

 17 17  0  0  0  0  0  0  0  0999 V2000
    3.6803    4.4907   42.4230 O   0  0  0  0  0  0  0  0  0  0  0  0
    3.0817    5.0487   43.2453 C   0  0  0  0  0  0  0  0  0  0  0  0
    2.3210    6.3740   43.1903 N   0  0  0  0  0  0  0  0  0  0  0  0
    2.2112    7.3548   42.1264 C   0  0  0  0  0  0  0  0  0  0  0  0
    3.5514    7.8501   41.5576 C   0  0  0  0  0  0  0  0  0  0  0  0
    4.4470    7.9953   42.5746 F   0  0  0  0  0  0  0  0  0  0  0  0
    3.3747    9.0885   41.0252 F   0  0  0  0  0  0  0  0  0  0  0  0
    4.2507    6.8131   40.3053 Cl  0  0  0  0  0  0  0  0  0  0  0  0
    3.0198    4.4522   44.5823 C   0  0  0  0  0  0  0  0  0  0  0  0
    2.2099    5.1749   45.9104 S   0  0  0  0  0  0  0  0  0  0  0  0
    2.6740    3.8682   46.9077 C   0  0  0  0  0  0  0  0  0  0  0  0
    3.3985    2.9359   46.3329 N   0  0  0  0  0  0  0  0  0  0  0  0
    3.6058    3.2532   44.9804 C   0  0  0  0  0  0  0  0  0  0  0  0
    4.3823    2.3186   44.0833 C   0  0  0  0  0  0  0  0  0  0  0  0
    3.6304    1.8629   43.0517 F   0  0  0  0  0  0  0  0  0  0  0  0
    5.5001    2.8948   43.5734 F   0  0  0  0  0  0  0  0  0  0  0  0
    4.8130    1.2101   44.7507 F   0  0  0  0  0  0  0  0  0  0  0  0
  1  2  2  0
  2  3  1  0
  3  4  1  0
  4  5  1  0
  5  6  1  0
  5  7  1  0
  5  8  1  0
  2  9  1  0
  9 10  1  0
 10 11  1  0
 11 12  2  0
 12 13  1  0
 13 14  1  0
 14 15  1  0
 14 16  1  0
 14 17  1  0
 13  9  2  0
M  END
>  <inchikey>  (754) 
RPFPVYPJDMNCEI-UHFFFAOYSA-N

>  <tags>  (754) 
fragmenstein_placed,CpKRS_FrAncestor_bulkdock_iter2

>  <ref_pdb>  (754) 
x0485c

>  <energy_score>  (754) 
-11.426035

>  <distance_score>  (754) 
0.330256

>  <HIPPO Pose ID>  (754) 
56450

>  <ref_mols>  (754) 
x0504c

>  <smiles>  (754) 
O=C(NCC(F)(F)Cl)c1scnc1C(F)(F)F

>  <HIPPO Compound ID>  (754) 
34443

>  <alias>  (754) 
RPFPVYPJDMNCEI-UHFFFAOYSA-N-P47

>  <subsites>  (754) 


>  <placement_batch>  (754) 
CpKRS_FrAncestor_bulkdock_iter2

>  <name>  (754) 
RPFPVYPJDMNCEI-UHFFFAOYSA-N-P47

$$$$
ZUXBITYHGLNRPY-UHFFFAOYSA-N-P48
     RDKit          3D

 14 14  0  0  0  0  0  0  0  0999 V2000
    5.2989  -13.4589   25.1550 O   0  0  0  0  0  0  0  0  0  0  0  0
    4.1810  -13.2436   24.9192 C   0  0  0  0  0  0  0  0  0  0  0  0
    3.5396  -12.4761   23.7526 N   0  0  0  0  0  0  0  0  0  0  0  0
    4.1472  -11.7255   22.6732 C   0  0  0  0  0  0  0  0  0  0  0  0
    4.3438  -10.2256   22.9278 C   0  0  0  0  0  0  0  0  0  0  0  0
    5.1685   -9.9974   23.9761 F   0  0  0  0  0  0  0  0  0  0  0  0
    4.9269   -9.6531   21.8418 F   0  0  0  0  0  0  0  0  0  0  0  0
    2.7996   -9.3760   23.2428 Cl  0  0  0  0  0  0  0  0  0  0  0  0
    3.1358  -13.7600   25.8115 C   0  0  0  0  0  0  0  0  0  0  0  0
    1.5448  -13.1006   25.8614 S   0  0  0  0  0  0  0  0  0  0  0  0
    1.1405  -14.1675   27.1335 C   0  0  0  0  0  0  0  0  0  0  0  0
    2.0776  -15.0092   27.4938 N   0  0  0  0  0  0  0  0  0  0  0  0
    3.2247  -14.7803   26.7455 C   0  0  0  0  0  0  0  0  0  0  0  0
    4.5865  -15.7779   27.0176 Cl  0  0  0  0  0  0  0  0  0  0  0  0
  1  2  2  0
  2  3  1  0
  3  4  1  0
  4  5  1  0
  5  6  1  0
  5  7  1  0
  5  8  1  0
  2  9  1  0
  9 10  1  0
 10 11  1  0
 11 12  2  0
 12 13  1  0
 13 14  1  0
 13  9  2  0
M  END
>  <inchikey>  (755) 
ZUXBITYHGLNRPY-UHFFFAOYSA-N

>  <tags>  (755) 
fragmenstein_placed,CpKRS_FrAncestor_bulkdock_iter2

>  <ref_pdb>  (755) 
x0485c

>  <energy_score>  (755) 
-57.19383

>  <distance_score>  (755) 
0.361708

>  <HIPPO Pose ID>  (755) 
56451

>  <ref_mols>  (755) 
x0504a

>  <smiles>  (755) 
O=C(NCC(F)(F)Cl)c1scnc1Cl

>  <HIPPO Compound ID>  (755) 
34444

>  <alias>  (755) 
ZUXBITYHGLNRPY-UHFFFAOYSA-N-P48

>  <subsites>  (755) 


>  <placement_batch>  (755) 
CpKRS_FrAncestor_bulkdock_iter2

>  <name>  (755) 
ZUXBITYHGLNRPY-UHFFFAOYSA-N-P48

$$$$
RZYMZTVIKUJXSB-UHFFFAOYSA-N-P48
     RDKit          3D

 14 14  0  0  0  0  0  0  0  0999 V2000
    5.4607  -13.2579   25.0693 O   0  0  0  0  0  0  0  0  0  0  0  0
    4.3736  -13.0605   24.7038 C   0  0  0  0  0  0  0  0  0  0  0  0
    3.8603  -12.3239   23.4539 N   0  0  0  0  0  0  0  0  0  0  0  0
    4.5775  -11.5899   22.4357 C   0  0  0  0  0  0  0  0  0  0  0  0
    4.5624  -10.0776   22.6377 C   0  0  0  0  0  0  0  0  0  0  0  0
    5.1020   -9.7008   23.8158 F   0  0  0  0  0  0  0  0  0  0  0  0
    5.2455   -9.4533   21.6529 F   0  0  0  0  0  0  0  0  0  0  0  0
    3.2956   -9.5822   22.6100 F   0  0  0  0  0  0  0  0  0  0  0  0
    3.2373  -13.5579   25.4770 C   0  0  0  0  0  0  0  0  0  0  0  0
    3.2235  -14.4823   26.5081 C   0  0  0  0  0  0  0  0  0  0  0  0
    1.9741  -14.7841   27.0356 N   0  0  0  0  0  0  0  0  0  0  0  0
    1.0772  -14.0569   26.4155 C   0  0  0  0  0  0  0  0  0  0  0  0
   -0.8039  -14.2210   26.6992 Br  0  0  0  0  0  0  0  0  0  0  0  0
    1.6417  -12.9811   25.2307 S   0  0  0  0  0  0  0  0  0  0  0  0
  1  2  2  0
  2  3  1  0
  3  4  1  0
  4  5  1  0
  5  6  1  0
  5  7  1  0
  5  8  1  0
  2  9  1  0
  9 10  2  0
 10 11  1  0
 11 12  2  0
 12 13  1  0
 12 14  1  0
 14  9  1  0
M  END
>  <inchikey>  (756) 
RZYMZTVIKUJXSB-UHFFFAOYSA-N

>  <tags>  (756) 
fragmenstein_placed,CpKRS_FrAncestor_bulkdock_iter2

>  <ref_pdb>  (756) 
x0485c

>  <energy_score>  (756) 
-59.042075

>  <distance_score>  (756) 
0.694099

>  <HIPPO Pose ID>  (756) 
56454

>  <ref_mols>  (756) 
x0504a

>  <smiles>  (756) 
O=C(NCC(F)(F)F)c1cnc(Br)s1

>  <HIPPO Compound ID>  (756) 
34445

>  <alias>  (756) 
RZYMZTVIKUJXSB-UHFFFAOYSA-N-P48

>  <subsites>  (756) 


>  <placement_batch>  (756) 
CpKRS_FrAncestor_bulkdock_iter2

>  <name>  (756) 
RZYMZTVIKUJXSB-UHFFFAOYSA-N-P48

$$$$
LDPGNXQSDIHHCJ-UHFFFAOYSA-N-P48
     RDKit          3D

 17 17  0  0  0  0  0  0  0  0999 V2000
    5.6808  -13.5587   24.9986 O   0  0  0  0  0  0  0  0  0  0  0  0
    4.5351  -13.3920   24.8871 C   0  0  0  0  0  0  0  0  0  0  0  0
    3.7372  -12.6615   23.7970 N   0  0  0  0  0  0  0  0  0  0  0  0
    4.1902  -11.8930   22.6522 C   0  0  0  0  0  0  0  0  0  0  0  0
    4.2614  -10.3782   22.8443 C   0  0  0  0  0  0  0  0  0  0  0  0
    4.8750   -9.7858   21.7927 F   0  0  0  0  0  0  0  0  0  0  0  0
    4.9265  -10.0111   23.9588 F   0  0  0  0  0  0  0  0  0  0  0  0
    3.0187   -9.8318   22.9244 F   0  0  0  0  0  0  0  0  0  0  0  0
    3.6398  -13.9847   25.8789 C   0  0  0  0  0  0  0  0  0  0  0  0
    3.9673  -14.9762   26.7830 C   0  0  0  0  0  0  0  0  0  0  0  0
    2.9810  -15.3372   27.6753 N   0  0  0  0  0  0  0  0  0  0  0  0
    1.9094  -14.5895   27.4807 C   0  0  0  0  0  0  0  0  0  0  0  0
    0.6544  -14.6288   28.2983 C   0  0  0  0  0  0  0  0  0  0  0  0
    0.4933  -13.5106   29.0476 F   0  0  0  0  0  0  0  0  0  0  0  0
   -0.4378  -14.7394   27.4936 F   0  0  0  0  0  0  0  0  0  0  0  0
    0.6315  -15.6687   29.1712 F   0  0  0  0  0  0  0  0  0  0  0  0
    2.0162  -13.5044   26.1366 S   0  0  0  0  0  0  0  0  0  0  0  0
  1  2  2  0
  2  3  1  0
  3  4  1  0
  4  5  1  0
  5  6  1  0
  5  7  1  0
  5  8  1  0
  2  9  1  0
  9 10  2  0
 10 11  1  0
 11 12  2  0
 12 13  1  0
 13 14  1  0
 13 15  1  0
 13 16  1  0
 12 17  1  0
 17  9  1  0
M  END
>  <inchikey>  (757) 
LDPGNXQSDIHHCJ-UHFFFAOYSA-N

>  <tags>  (757) 
fragmenstein_placed,CpKRS_FrAncestor_bulkdock_iter2

>  <ref_pdb>  (757) 
x0485c

>  <energy_score>  (757) 
-34.180034

>  <distance_score>  (757) 
0.579312

>  <HIPPO Pose ID>  (757) 
56457

>  <ref_mols>  (757) 
x0504a

>  <smiles>  (757) 
O=C(NCC(F)(F)F)c1cnc(C(F)(F)F)s1

>  <HIPPO Compound ID>  (757) 
34446

>  <alias>  (757) 
LDPGNXQSDIHHCJ-UHFFFAOYSA-N-P48

>  <subsites>  (757) 


>  <placement_batch>  (757) 
CpKRS_FrAncestor_bulkdock_iter2

>  <name>  (757) 
LDPGNXQSDIHHCJ-UHFFFAOYSA-N-P48

$$$$
OTRGLARSPFKMJE-UHFFFAOYSA-N-P49
     RDKit          3D

 16 16  0  0  0  0  0  0  0  0999 V2000
    5.4413  -13.8551   24.1910 O   0  0  0  0  0  0  0  0  0  0  0  0
    4.4195  -13.3235   24.3512 C   0  0  0  0  0  0  0  0  0  0  0  0
    3.8610  -12.0329   23.7325 N   0  0  0  0  0  0  0  0  0  0  0  0
    4.4837  -11.0649   22.8508 C   0  0  0  0  0  0  0  0  0  0  0  0
    4.5860   -9.6564   23.4349 C   0  0  0  0  0  0  0  0  0  0  0  0
    3.3881   -9.0175   23.3746 F   0  0  0  0  0  0  0  0  0  0  0  0
    4.9816   -9.6624   24.7264 F   0  0  0  0  0  0  0  0  0  0  0  0
    5.4648   -8.9010   22.7393 F   0  0  0  0  0  0  0  0  0  0  0  0
    3.4894  -13.8666   25.3352 C   0  0  0  0  0  0  0  0  0  0  0  0
    3.7100  -14.9370   26.1820 C   0  0  0  0  0  0  0  0  0  0  0  0
    2.7100  -15.1997   27.0957 N   0  0  0  0  0  0  0  0  0  0  0  0
    1.7459  -14.3149   26.9468 C   0  0  0  0  0  0  0  0  0  0  0  0
    0.5577  -14.2079   27.8210 C   0  0  0  0  0  0  0  0  0  0  0  0
   -0.5472  -14.7965   27.2721 F   0  0  0  0  0  0  0  0  0  0  0  0
    0.1662  -12.9181   28.0212 F   0  0  0  0  0  0  0  0  0  0  0  0
    1.9381  -13.2153   25.6454 S   0  0  0  0  0  0  0  0  0  0  0  0
  1  2  2  0
  2  3  1  0
  3  4  1  0
  4  5  1  0
  5  6  1  0
  5  7  1  0
  5  8  1  0
  2  9  1  0
  9 10  2  0
 10 11  1  0
 11 12  2  0
 12 13  1  0
 13 14  1  0
 13 15  1  0
 12 16  1  0
 16  9  1  0
M  END
>  <inchikey>  (758) 
OTRGLARSPFKMJE-UHFFFAOYSA-N

>  <tags>  (758) 
fragmenstein_placed,CpKRS_FrAncestor_bulkdock_iter2

>  <ref_pdb>  (758) 
x0485c

>  <energy_score>  (758) 
-26.04856

>  <distance_score>  (758) 
0.59408

>  <HIPPO Pose ID>  (758) 
56461

>  <ref_mols>  (758) 
x0504b

>  <smiles>  (758) 
O=C(NCC(F)(F)F)c1cnc(C(F)F)s1

>  <HIPPO Compound ID>  (758) 
34447

>  <alias>  (758) 
OTRGLARSPFKMJE-UHFFFAOYSA-N-P49

>  <subsites>  (758) 


>  <placement_batch>  (758) 
CpKRS_FrAncestor_bulkdock_iter2

>  <name>  (758) 
OTRGLARSPFKMJE-UHFFFAOYSA-N-P49

$$$$
NDBAYISQRZJZCO-UHFFFAOYSA-N-P48
     RDKit          3D

 14 14  0  0  0  0  0  0  0  0999 V2000
    5.6635  -13.7064   24.8378 O   0  0  0  0  0  0  0  0  0  0  0  0
    4.5355  -13.4315   24.7745 C   0  0  0  0  0  0  0  0  0  0  0  0
    3.7890  -12.5118   23.7977 N   0  0  0  0  0  0  0  0  0  0  0  0
    4.2606  -11.8036   22.6236 C   0  0  0  0  0  0  0  0  0  0  0  0
    4.3281  -10.2838   22.7631 C   0  0  0  0  0  0  0  0  0  0  0  0
    4.9881   -9.8837   23.8705 F   0  0  0  0  0  0  0  0  0  0  0  0
    3.0844   -9.7365   22.8255 F   0  0  0  0  0  0  0  0  0  0  0  0
    4.9451   -9.7237   21.6975 F   0  0  0  0  0  0  0  0  0  0  0  0
    3.6235  -13.9854   25.7686 C   0  0  0  0  0  0  0  0  0  0  0  0
    3.9059  -14.9967   26.6726 C   0  0  0  0  0  0  0  0  0  0  0  0
    2.9234  -15.2728   27.5996 N   0  0  0  0  0  0  0  0  0  0  0  0
    1.9345  -14.4449   27.3917 C   0  0  0  0  0  0  0  0  0  0  0  0
    0.6159  -14.3378   28.4628 Cl  0  0  0  0  0  0  0  0  0  0  0  0
    2.0284  -13.4135   26.0487 S   0  0  0  0  0  0  0  0  0  0  0  0
  1  2  2  0
  2  3  1  0
  3  4  1  0
  4  5  1  0
  5  6  1  0
  5  7  1  0
  5  8  1  0
  2  9  1  0
  9 10  2  0
 10 11  1  0
 11 12  2  0
 12 13  1  0
 12 14  1  0
 14  9  1  0
M  END
>  <inchikey>  (759) 
NDBAYISQRZJZCO-UHFFFAOYSA-N

>  <tags>  (759) 
fragmenstein_placed,CpKRS_FrAncestor_bulkdock_iter2

>  <ref_pdb>  (759) 
x0485c

>  <energy_score>  (759) 
-67.899814

>  <distance_score>  (759) 
0.54089

>  <HIPPO Pose ID>  (759) 
56463

>  <ref_mols>  (759) 
x0504a

>  <smiles>  (759) 
O=C(NCC(F)(F)F)c1cnc(Cl)s1

>  <HIPPO Compound ID>  (759) 
34448

>  <alias>  (759) 
NDBAYISQRZJZCO-UHFFFAOYSA-N-P48

>  <subsites>  (759) 


>  <placement_batch>  (759) 
CpKRS_FrAncestor_bulkdock_iter2

>  <name>  (759) 
NDBAYISQRZJZCO-UHFFFAOYSA-N-P48

$$$$
PJHCBAAMSKCWKI-UHFFFAOYSA-N-P49
     RDKit          3D

 13 13  0  0  0  0  0  0  0  0999 V2000
    5.3551  -13.6612   24.8430 O   0  0  0  0  0  0  0  0  0  0  0  0
    4.2762  -13.2254   24.8373 C   0  0  0  0  0  0  0  0  0  0  0  0
    3.6906  -12.0259   24.0751 N   0  0  0  0  0  0  0  0  0  0  0  0
    4.2899  -11.1594   23.0782 C   0  0  0  0  0  0  0  0  0  0  0  0
    4.4732   -9.7086   23.5230 C   0  0  0  0  0  0  0  0  0  0  0  0
    4.9428   -9.6097   24.7851 F   0  0  0  0  0  0  0  0  0  0  0  0
    5.3362   -9.0539   22.7130 F   0  0  0  0  0  0  0  0  0  0  0  0
    3.2971   -9.0294   23.4660 F   0  0  0  0  0  0  0  0  0  0  0  0
    3.2692  -13.8159   25.7228 C   0  0  0  0  0  0  0  0  0  0  0  0
    3.4537  -14.8759   26.5947 C   0  0  0  0  0  0  0  0  0  0  0  0
    2.3650  -15.2195   27.3749 N   0  0  0  0  0  0  0  0  0  0  0  0
    1.3700  -14.4167   27.0889 C   0  0  0  0  0  0  0  0  0  0  0  0
    1.6550  -13.2469   25.8740 S   0  0  0  0  0  0  0  0  0  0  0  0
  1  2  2  0
  2  3  1  0
  3  4  1  0
  4  5  1  0
  5  6  1  0
  5  7  1  0
  5  8  1  0
  2  9  1  0
  9 10  2  0
 10 11  1  0
 11 12  2  0
 12 13  1  0
 13  9  1  0
M  END
>  <inchikey>  (760) 
PJHCBAAMSKCWKI-UHFFFAOYSA-N

>  <tags>  (760) 
fragmenstein_placed,CpKRS_FrAncestor_bulkdock_iter2

>  <ref_pdb>  (760) 
x0485c

>  <energy_score>  (760) 
-39.36508

>  <distance_score>  (760) 
0.32642

>  <HIPPO Pose ID>  (760) 
56467

>  <ref_mols>  (760) 
x0504b

>  <smiles>  (760) 
O=C(NCC(F)(F)F)c1cncs1

>  <HIPPO Compound ID>  (760) 
34449

>  <alias>  (760) 
PJHCBAAMSKCWKI-UHFFFAOYSA-N-P49

>  <subsites>  (760) 


>  <placement_batch>  (760) 
CpKRS_FrAncestor_bulkdock_iter2

>  <name>  (760) 
PJHCBAAMSKCWKI-UHFFFAOYSA-N-P49

$$$$
RYOBGFCYAOMCKP-UHFFFAOYSA-N-P49
     RDKit          3D

 13 13  0  0  0  0  0  0  0  0999 V2000
    5.3744  -13.6721   24.8716 O   0  0  0  0  0  0  0  0  0  0  0  0
    4.2764  -13.2883   24.8627 C   0  0  0  0  0  0  0  0  0  0  0  0
    3.6135  -12.1921   24.0203 N   0  0  0  0  0  0  0  0  0  0  0  0
    4.1855  -11.2608   23.0675 C   0  0  0  0  0  0  0  0  0  0  0  0
    4.3815   -9.8310   23.5731 C   0  0  0  0  0  0  0  0  0  0  0  0
    5.2195   -9.1422   22.7613 F   0  0  0  0  0  0  0  0  0  0  0  0
    3.2074   -9.1482   23.5778 F   0  0  0  0  0  0  0  0  0  0  0  0
    4.8950   -9.7787   24.8195 F   0  0  0  0  0  0  0  0  0  0  0  0
    3.2592  -13.8645   25.7654 C   0  0  0  0  0  0  0  0  0  0  0  0
    3.5035  -14.9204   26.6277 C   0  0  0  0  0  0  0  0  0  0  0  0
    2.1049  -15.2757   27.5491 S   0  0  0  0  0  0  0  0  0  0  0  0
    1.2796  -14.0120   26.7421 C   0  0  0  0  0  0  0  0  0  0  0  0
    1.9531  -13.3541   25.8249 N   0  0  0  0  0  0  0  0  0  0  0  0
  1  2  2  0
  2  3  1  0
  3  4  1  0
  4  5  1  0
  5  6  1  0
  5  7  1  0
  5  8  1  0
  2  9  1  0
  9 10  2  0
 10 11  1  0
 11 12  1  0
 12 13  2  0
 13  9  1  0
M  END
>  <inchikey>  (761) 
RYOBGFCYAOMCKP-UHFFFAOYSA-N

>  <tags>  (761) 
fragmenstein_placed,CpKRS_FrAncestor_bulkdock_iter2

>  <ref_pdb>  (761) 
x0485c

>  <energy_score>  (761) 
-38.350492

>  <distance_score>  (761) 
0.39361

>  <HIPPO Pose ID>  (761) 
56470

>  <ref_mols>  (761) 
x0504b

>  <smiles>  (761) 
O=C(NCC(F)(F)F)c1cscn1

>  <HIPPO Compound ID>  (761) 
34450

>  <alias>  (761) 
RYOBGFCYAOMCKP-UHFFFAOYSA-N-P49

>  <subsites>  (761) 


>  <placement_batch>  (761) 
CpKRS_FrAncestor_bulkdock_iter2

>  <name>  (761) 
RYOBGFCYAOMCKP-UHFFFAOYSA-N-P49

$$$$
OTVXXLZQYVQXHZ-UHFFFAOYSA-N-P49
     RDKit          3D

 15 15  0  0  0  0  0  0  0  0999 V2000
    5.2979  -13.5878   24.7083 O   0  0  0  0  0  0  0  0  0  0  0  0
    4.2192  -13.1603   24.7688 C   0  0  0  0  0  0  0  0  0  0  0  0
    3.5905  -11.9485   24.0725 N   0  0  0  0  0  0  0  0  0  0  0  0
    4.1327  -11.0518   23.0720 C   0  0  0  0  0  0  0  0  0  0  0  0
    4.4027   -9.6278   23.5553 C   0  0  0  0  0  0  0  0  0  0  0  0
    5.2837   -8.9985   22.7432 F   0  0  0  0  0  0  0  0  0  0  0  0
    4.9037   -9.5887   24.8082 F   0  0  0  0  0  0  0  0  0  0  0  0
    3.2650   -8.8835   23.5381 F   0  0  0  0  0  0  0  0  0  0  0  0
    3.2090  -13.7518   25.6672 C   0  0  0  0  0  0  0  0  0  0  0  0
    1.9339  -13.1694   25.7997 N   0  0  0  0  0  0  0  0  0  0  0  0
    1.2659  -13.8531   26.6946 C   0  0  0  0  0  0  0  0  0  0  0  0
   -0.3425  -13.4407   27.1288 Cl  0  0  0  0  0  0  0  0  0  0  0  0
    2.0143  -15.1966   27.4032 S   0  0  0  0  0  0  0  0  0  0  0  0
    3.3880  -14.8727   26.4539 C   0  0  0  0  0  0  0  0  0  0  0  0
    4.7382  -15.9160   26.5817 Cl  0  0  0  0  0  0  0  0  0  0  0  0
  1  2  2  0
  2  3  1  0
  3  4  1  0
  4  5  1  0
  5  6  1  0
  5  7  1  0
  5  8  1  0
  2  9  1  0
  9 10  1  0
 10 11  2  0
 11 12  1  0
 11 13  1  0
 13 14  1  0
 14 15  1  0
 14  9  2  0
M  END
>  <inchikey>  (762) 
OTVXXLZQYVQXHZ-UHFFFAOYSA-N

>  <tags>  (762) 
fragmenstein_placed,CpKRS_FrAncestor_bulkdock_iter2

>  <ref_pdb>  (762) 
x0485c

>  <energy_score>  (762) 
-64.131947

>  <distance_score>  (762) 
0.390826

>  <HIPPO Pose ID>  (762) 
56473

>  <ref_mols>  (762) 
x0504b

>  <smiles>  (762) 
O=C(NCC(F)(F)F)c1nc(Cl)sc1Cl

>  <HIPPO Compound ID>  (762) 
34451

>  <alias>  (762) 
OTVXXLZQYVQXHZ-UHFFFAOYSA-N-P49

>  <subsites>  (762) 


>  <placement_batch>  (762) 
CpKRS_FrAncestor_bulkdock_iter2

>  <name>  (762) 
OTVXXLZQYVQXHZ-UHFFFAOYSA-N-P49

$$$$
VGJRKPAVVKLHHN-UHFFFAOYSA-N-P49
     RDKit          3D

 14 14  0  0  0  0  0  0  0  0999 V2000
    5.1940  -13.5126   24.6608 O   0  0  0  0  0  0  0  0  0  0  0  0
    4.1190  -13.0739   24.7036 C   0  0  0  0  0  0  0  0  0  0  0  0
    3.4893  -11.9122   23.9290 N   0  0  0  0  0  0  0  0  0  0  0  0
    4.0788  -10.9736   22.9973 C   0  0  0  0  0  0  0  0  0  0  0  0
    4.3837   -9.5885   23.5635 C   0  0  0  0  0  0  0  0  0  0  0  0
    4.8676   -9.6290   24.8220 F   0  0  0  0  0  0  0  0  0  0  0  0
    5.2927   -8.9425   22.7959 F   0  0  0  0  0  0  0  0  0  0  0  0
    3.2668   -8.8121   23.5686 F   0  0  0  0  0  0  0  0  0  0  0  0
    3.0926  -13.6239   25.6183 C   0  0  0  0  0  0  0  0  0  0  0  0
    1.8451  -12.9795   25.7566 N   0  0  0  0  0  0  0  0  0  0  0  0
    1.1332  -13.6023   26.6695 C   0  0  0  0  0  0  0  0  0  0  0  0
    1.8339  -14.9932   27.3725 S   0  0  0  0  0  0  0  0  0  0  0  0
    3.2164  -14.7506   26.4080 C   0  0  0  0  0  0  0  0  0  0  0  0
    4.6938  -15.9487   26.4719 Br  0  0  0  0  0  0  0  0  0  0  0  0
  1  2  2  0
  2  3  1  0
  3  4  1  0
  4  5  1  0
  5  6  1  0
  5  7  1  0
  5  8  1  0
  2  9  1  0
  9 10  1  0
 10 11  2  0
 11 12  1  0
 12 13  1  0
 13 14  1  0
 13  9  2  0
M  END
>  <inchikey>  (763) 
VGJRKPAVVKLHHN-UHFFFAOYSA-N

>  <tags>  (763) 
fragmenstein_placed,CpKRS_FrAncestor_bulkdock_iter2

>  <ref_pdb>  (763) 
x0485c

>  <energy_score>  (763) 
-53.912126

>  <distance_score>  (763) 
0.444949

>  <HIPPO Pose ID>  (763) 
56476

>  <ref_mols>  (763) 
x0504b

>  <smiles>  (763) 
O=C(NCC(F)(F)F)c1ncsc1Br

>  <HIPPO Compound ID>  (763) 
34452

>  <alias>  (763) 
VGJRKPAVVKLHHN-UHFFFAOYSA-N-P49

>  <subsites>  (763) 


>  <placement_batch>  (763) 
CpKRS_FrAncestor_bulkdock_iter2

>  <name>  (763) 
VGJRKPAVVKLHHN-UHFFFAOYSA-N-P49

$$$$
GGSBGMMVZUPKAF-UHFFFAOYSA-N-P49
     RDKit          3D

 17 17  0  0  0  0  0  0  0  0999 V2000
    4.8962  -13.8578   24.3910 O   0  0  0  0  0  0  0  0  0  0  0  0
    3.9089  -13.3137   24.6708 C   0  0  0  0  0  0  0  0  0  0  0  0
    3.3005  -12.0197   24.1258 N   0  0  0  0  0  0  0  0  0  0  0  0
    3.8258  -11.0592   23.1792 C   0  0  0  0  0  0  0  0  0  0  0  0
    4.8080  -10.0565   23.7836 C   0  0  0  0  0  0  0  0  0  0  0  0
    4.2510   -9.3922   24.8229 F   0  0  0  0  0  0  0  0  0  0  0  0
    5.9305  -10.6448   24.2371 F   0  0  0  0  0  0  0  0  0  0  0  0
    5.1639   -9.1263   22.8663 F   0  0  0  0  0  0  0  0  0  0  0  0
    3.0120  -13.8237   25.7265 C   0  0  0  0  0  0  0  0  0  0  0  0
    1.7525  -13.2324   25.9301 N   0  0  0  0  0  0  0  0  0  0  0  0
    1.1404  -13.8392   26.9188 C   0  0  0  0  0  0  0  0  0  0  0  0
    1.9720  -15.1374   27.6456 S   0  0  0  0  0  0  0  0  0  0  0  0
    3.3132  -14.8503   26.6050 C   0  0  0  0  0  0  0  0  0  0  0  0
    4.5535  -15.6489   26.7404 C   0  0  0  0  0  0  0  0  0  0  0  0
    5.6928  -14.9335   26.5764 F   0  0  0  0  0  0  0  0  0  0  0  0
    4.6546  -16.1957   27.9824 F   0  0  0  0  0  0  0  0  0  0  0  0
    4.6006  -16.6786   25.8571 F   0  0  0  0  0  0  0  0  0  0  0  0
  1  2  2  0
  2  3  1  0
  3  4  1  0
  4  5  1  0
  5  6  1  0
  5  7  1  0
  5  8  1  0
  2  9  1  0
  9 10  1  0
 10 11  2  0
 11 12  1  0
 12 13  1  0
 13 14  1  0
 14 15  1  0
 14 16  1  0
 14 17  1  0
 13  9  2  0
M  END
>  <inchikey>  (764) 
GGSBGMMVZUPKAF-UHFFFAOYSA-N

>  <tags>  (764) 
fragmenstein_placed,CpKRS_FrAncestor_bulkdock_iter2

>  <ref_pdb>  (764) 
x0485c

>  <energy_score>  (764) 
-82.034545

>  <distance_score>  (764) 
0.363411

>  <HIPPO Pose ID>  (764) 
56479

>  <ref_mols>  (764) 
x0504b

>  <smiles>  (764) 
O=C(NCC(F)(F)F)c1ncsc1C(F)(F)F

>  <HIPPO Compound ID>  (764) 
34453

>  <alias>  (764) 
GGSBGMMVZUPKAF-UHFFFAOYSA-N-P49

>  <subsites>  (764) 


>  <placement_batch>  (764) 
CpKRS_FrAncestor_bulkdock_iter2

>  <name>  (764) 
GGSBGMMVZUPKAF-UHFFFAOYSA-N-P49

$$$$
YALPBSOJKCOVHY-UHFFFAOYSA-N-P49
     RDKit          3D

 14 14  0  0  0  0  0  0  0  0999 V2000
    5.2693  -13.6260   24.6882 O   0  0  0  0  0  0  0  0  0  0  0  0
    4.1951  -13.1853   24.7398 C   0  0  0  0  0  0  0  0  0  0  0  0
    3.5591  -12.0245   23.9665 N   0  0  0  0  0  0  0  0  0  0  0  0
    4.1414  -11.0894   23.0247 C   0  0  0  0  0  0  0  0  0  0  0  0
    4.3944   -9.6823   23.5638 C   0  0  0  0  0  0  0  0  0  0  0  0
    4.8877   -9.6822   24.8195 F   0  0  0  0  0  0  0  0  0  0  0  0
    5.2731   -9.0145   22.7796 F   0  0  0  0  0  0  0  0  0  0  0  0
    3.2493   -8.9496   23.5654 F   0  0  0  0  0  0  0  0  0  0  0  0
    3.1816  -13.7319   25.6647 C   0  0  0  0  0  0  0  0  0  0  0  0
    1.9204  -13.1147   25.8003 N   0  0  0  0  0  0  0  0  0  0  0  0
    1.2306  -13.7464   26.7249 C   0  0  0  0  0  0  0  0  0  0  0  0
    1.9720  -15.1124   27.4401 S   0  0  0  0  0  0  0  0  0  0  0  0
    3.3421  -14.8394   26.4714 C   0  0  0  0  0  0  0  0  0  0  0  0
    4.6696  -15.9127   26.6061 Cl  0  0  0  0  0  0  0  0  0  0  0  0
  1  2  2  0
  2  3  1  0
  3  4  1  0
  4  5  1  0
  5  6  1  0
  5  7  1  0
  5  8  1  0
  2  9  1  0
  9 10  1  0
 10 11  2  0
 11 12  1  0
 12 13  1  0
 13 14  1  0
 13  9  2  0
M  END
>  <inchikey>  (765) 
YALPBSOJKCOVHY-UHFFFAOYSA-N

>  <tags>  (765) 
fragmenstein_placed,CpKRS_FrAncestor_bulkdock_iter2

>  <ref_pdb>  (765) 
x0485c

>  <energy_score>  (765) 
-64.38575

>  <distance_score>  (765) 
0.390817

>  <HIPPO Pose ID>  (765) 
56482

>  <ref_mols>  (765) 
x0504b

>  <smiles>  (765) 
O=C(NCC(F)(F)F)c1ncsc1Cl

>  <HIPPO Compound ID>  (765) 
34454

>  <alias>  (765) 
YALPBSOJKCOVHY-UHFFFAOYSA-N-P49

>  <subsites>  (765) 


>  <placement_batch>  (765) 
CpKRS_FrAncestor_bulkdock_iter2

>  <name>  (765) 
YALPBSOJKCOVHY-UHFFFAOYSA-N-P49

$$$$
JBATVNQPGSFNBQ-UHFFFAOYSA-N-P49
     RDKit          3D

 15 15  0  0  0  0  0  0  0  0999 V2000
    5.4198  -13.4664   24.8347 O   0  0  0  0  0  0  0  0  0  0  0  0
    4.3449  -13.0621   24.6509 C   0  0  0  0  0  0  0  0  0  0  0  0
    3.8441  -11.9554   23.7055 N   0  0  0  0  0  0  0  0  0  0  0  0
    4.5785  -11.0430   22.8515 C   0  0  0  0  0  0  0  0  0  0  0  0
    4.6604   -9.6228   23.4118 C   0  0  0  0  0  0  0  0  0  0  0  0
    5.5676   -8.8809   22.7413 F   0  0  0  0  0  0  0  0  0  0  0  0
    4.9955   -9.6051   24.7203 F   0  0  0  0  0  0  0  0  0  0  0  0
    3.4645   -8.9863   23.2875 F   0  0  0  0  0  0  0  0  0  0  0  0
    3.2327  -13.5728   25.4565 C   0  0  0  0  0  0  0  0  0  0  0  0
    1.7031  -12.7803   25.4856 S   0  0  0  0  0  0  0  0  0  0  0  0
    1.1741  -13.8876   26.6365 C   0  0  0  0  0  0  0  0  0  0  0  0
   -0.4244  -13.7409   27.2208 Cl  0  0  0  0  0  0  0  0  0  0  0  0
    1.9925  -14.8288   27.0110 N   0  0  0  0  0  0  0  0  0  0  0  0
    3.1969  -14.6496   26.3368 C   0  0  0  0  0  0  0  0  0  0  0  0
    4.4719  -15.7547   26.6400 Cl  0  0  0  0  0  0  0  0  0  0  0  0
  1  2  2  0
  2  3  1  0
  3  4  1  0
  4  5  1  0
  5  6  1  0
  5  7  1  0
  5  8  1  0
  2  9  1  0
  9 10  1  0
 10 11  1  0
 11 12  1  0
 11 13  2  0
 13 14  1  0
 14 15  1  0
 14  9  2  0
M  END
>  <inchikey>  (766) 
JBATVNQPGSFNBQ-UHFFFAOYSA-N

>  <tags>  (766) 
fragmenstein_placed,CpKRS_FrAncestor_bulkdock_iter2

>  <ref_pdb>  (766) 
x0485c

>  <energy_score>  (766) 
-54.795206

>  <distance_score>  (766) 
0.560321

>  <HIPPO Pose ID>  (766) 
56485

>  <ref_mols>  (766) 
x0504b

>  <smiles>  (766) 
O=C(NCC(F)(F)F)c1sc(Cl)nc1Cl

>  <HIPPO Compound ID>  (766) 
34455

>  <alias>  (766) 
JBATVNQPGSFNBQ-UHFFFAOYSA-N-P49

>  <subsites>  (766) 


>  <placement_batch>  (766) 
CpKRS_FrAncestor_bulkdock_iter2

>  <name>  (766) 
JBATVNQPGSFNBQ-UHFFFAOYSA-N-P49

$$$$
ULIZGTKHYZSRDM-UHFFFAOYSA-N-P48
     RDKit          3D

 14 14  0  0  0  0  0  0  0  0999 V2000
    5.2865  -13.2818   25.1293 O   0  0  0  0  0  0  0  0  0  0  0  0
    4.1774  -13.1216   24.8213 C   0  0  0  0  0  0  0  0  0  0  0  0
    3.5776  -12.4321   23.5883 N   0  0  0  0  0  0  0  0  0  0  0  0
    4.2184  -11.7054   22.5122 C   0  0  0  0  0  0  0  0  0  0  0  0
    4.3208  -10.1960   22.7199 C   0  0  0  0  0  0  0  0  0  0  0  0
    4.9208   -9.8591   23.8802 F   0  0  0  0  0  0  0  0  0  0  0  0
    3.0905   -9.6131   22.7281 F   0  0  0  0  0  0  0  0  0  0  0  0
    5.0168   -9.6156   21.7156 F   0  0  0  0  0  0  0  0  0  0  0  0
    3.1034  -13.6399   25.6770 C   0  0  0  0  0  0  0  0  0  0  0  0
    1.5215  -12.9609   25.7003 S   0  0  0  0  0  0  0  0  0  0  0  0
    1.0768  -14.0314   26.9596 C   0  0  0  0  0  0  0  0  0  0  0  0
    1.9897  -14.8977   27.3246 N   0  0  0  0  0  0  0  0  0  0  0  0
    3.1459  -14.6705   26.5989 C   0  0  0  0  0  0  0  0  0  0  0  0
    4.6320  -15.8016   26.8843 Br  0  0  0  0  0  0  0  0  0  0  0  0
  1  2  2  0
  2  3  1  0
  3  4  1  0
  4  5  1  0
  5  6  1  0
  5  7  1  0
  5  8  1  0
  2  9  1  0
  9 10  1  0
 10 11  1  0
 11 12  2  0
 12 13  1  0
 13 14  1  0
 13  9  2  0
M  END
>  <inchikey>  (767) 
ULIZGTKHYZSRDM-UHFFFAOYSA-N

>  <tags>  (767) 
fragmenstein_placed,CpKRS_FrAncestor_bulkdock_iter2

>  <ref_pdb>  (767) 
x0485c

>  <energy_score>  (767) 
-32.667847

>  <distance_score>  (767) 
0.423398

>  <HIPPO Pose ID>  (767) 
56487

>  <ref_mols>  (767) 
x0504a

>  <smiles>  (767) 
O=C(NCC(F)(F)F)c1scnc1Br

>  <HIPPO Compound ID>  (767) 
34456

>  <alias>  (767) 
ULIZGTKHYZSRDM-UHFFFAOYSA-N-P48

>  <subsites>  (767) 


>  <placement_batch>  (767) 
CpKRS_FrAncestor_bulkdock_iter2

>  <name>  (767) 
ULIZGTKHYZSRDM-UHFFFAOYSA-N-P48

$$$$
RRVAGNIDDPEFKA-UHFFFAOYSA-N-P47
     RDKit          3D

 17 17  0  0  0  0  0  0  0  0999 V2000
    3.6458    4.5663   42.4845 O   0  0  0  0  0  0  0  0  0  0  0  0
    3.0601    5.1018   43.3313 C   0  0  0  0  0  0  0  0  0  0  0  0
    2.3781    6.4709   43.3526 N   0  0  0  0  0  0  0  0  0  0  0  0
    2.1873    7.4451   42.2955 C   0  0  0  0  0  0  0  0  0  0  0  0
    3.4829    7.8157   41.5736 C   0  0  0  0  0  0  0  0  0  0  0  0
    3.3300    8.9527   40.8588 F   0  0  0  0  0  0  0  0  0  0  0  0
    4.4839    8.0230   42.4648 F   0  0  0  0  0  0  0  0  0  0  0  0
    3.8895    6.8577   40.7156 F   0  0  0  0  0  0  0  0  0  0  0  0
    3.0039    4.4630   44.6479 C   0  0  0  0  0  0  0  0  0  0  0  0
    2.1933    5.1470   45.9962 S   0  0  0  0  0  0  0  0  0  0  0  0
    2.6708    3.8207   46.9579 C   0  0  0  0  0  0  0  0  0  0  0  0
    3.3940    2.9042   46.3566 N   0  0  0  0  0  0  0  0  0  0  0  0
    3.5920    3.2539   45.0104 C   0  0  0  0  0  0  0  0  0  0  0  0
    4.3664    2.3424   44.0873 C   0  0  0  0  0  0  0  0  0  0  0  0
    3.6112    1.9075   43.0487 F   0  0  0  0  0  0  0  0  0  0  0  0
    4.8051    1.2206   44.7268 F   0  0  0  0  0  0  0  0  0  0  0  0
    5.4794    2.9331   43.5836 F   0  0  0  0  0  0  0  0  0  0  0  0
  1  2  2  0
  2  3  1  0
  3  4  1  0
  4  5  1  0
  5  6  1  0
  5  7  1  0
  5  8  1  0
  2  9  1  0
  9 10  1  0
 10 11  1  0
 11 12  2  0
 12 13  1  0
 13 14  1  0
 14 15  1  0
 14 16  1  0
 14 17  1  0
 13  9  2  0
M  END
>  <inchikey>  (768) 
RRVAGNIDDPEFKA-UHFFFAOYSA-N

>  <tags>  (768) 
fragmenstein_placed,CpKRS_FrAncestor_bulkdock_iter2

>  <ref_pdb>  (768) 
x0485c

>  <energy_score>  (768) 
-68.404235

>  <distance_score>  (768) 
0.310739

>  <HIPPO Pose ID>  (768) 
56492

>  <ref_mols>  (768) 
x0504c

>  <smiles>  (768) 
O=C(NCC(F)(F)F)c1scnc1C(F)(F)F

>  <HIPPO Compound ID>  (768) 
34457

>  <alias>  (768) 
RRVAGNIDDPEFKA-UHFFFAOYSA-N-P47

>  <subsites>  (768) 


>  <placement_batch>  (768) 
CpKRS_FrAncestor_bulkdock_iter2

>  <name>  (768) 
RRVAGNIDDPEFKA-UHFFFAOYSA-N-P47

$$$$
ULPXLYSOSQKTQV-UHFFFAOYSA-N-P48
     RDKit          3D

 16 16  0  0  0  0  0  0  0  0999 V2000
    5.3345  -13.6886   25.0860 O   0  0  0  0  0  0  0  0  0  0  0  0
    4.2280  -13.4016   24.8697 C   0  0  0  0  0  0  0  0  0  0  0  0
    3.6177  -12.5814   23.7210 N   0  0  0  0  0  0  0  0  0  0  0  0
    4.2557  -11.8553   22.6383 C   0  0  0  0  0  0  0  0  0  0  0  0
    4.3221  -10.3385   22.8129 C   0  0  0  0  0  0  0  0  0  0  0  0
    4.9231   -9.9632   23.9611 F   0  0  0  0  0  0  0  0  0  0  0  0
    4.9967   -9.7611   21.7921 F   0  0  0  0  0  0  0  0  0  0  0  0
    3.0787   -9.7870   22.8186 F   0  0  0  0  0  0  0  0  0  0  0  0
    3.1670  -13.8759   25.7664 C   0  0  0  0  0  0  0  0  0  0  0  0
    1.6528  -13.0739   25.9160 S   0  0  0  0  0  0  0  0  0  0  0  0
    1.1846  -14.1729   27.1370 C   0  0  0  0  0  0  0  0  0  0  0  0
    2.0408  -15.1303   27.4027 N   0  0  0  0  0  0  0  0  0  0  0  0
    3.1915  -14.9732   26.6189 C   0  0  0  0  0  0  0  0  0  0  0  0
    4.2771  -15.9938   26.7342 C   0  0  0  0  0  0  0  0  0  0  0  0
    5.3775  -15.5241   27.3791 F   0  0  0  0  0  0  0  0  0  0  0  0
    4.6947  -16.4348   25.5148 F   0  0  0  0  0  0  0  0  0  0  0  0
  1  2  2  0
  2  3  1  0
  3  4  1  0
  4  5  1  0
  5  6  1  0
  5  7  1  0
  5  8  1  0
  2  9  1  0
  9 10  1  0
 10 11  1  0
 11 12  2  0
 12 13  1  0
 13 14  1  0
 14 15  1  0
 14 16  1  0
 13  9  2  0
M  END
>  <inchikey>  (769) 
ULPXLYSOSQKTQV-UHFFFAOYSA-N

>  <tags>  (769) 
fragmenstein_placed,CpKRS_FrAncestor_bulkdock_iter2

>  <ref_pdb>  (769) 
x0485c

>  <energy_score>  (769) 
-37.036647

>  <distance_score>  (769) 
0.351651

>  <HIPPO Pose ID>  (769) 
56493

>  <ref_mols>  (769) 
x0504a

>  <smiles>  (769) 
O=C(NCC(F)(F)F)c1scnc1C(F)F

>  <HIPPO Compound ID>  (769) 
34458

>  <alias>  (769) 
ULPXLYSOSQKTQV-UHFFFAOYSA-N-P48

>  <subsites>  (769) 


>  <placement_batch>  (769) 
CpKRS_FrAncestor_bulkdock_iter2

>  <name>  (769) 
ULPXLYSOSQKTQV-UHFFFAOYSA-N-P48

$$$$
UNPXXNUKHWBCQH-UHFFFAOYSA-N-P48
     RDKit          3D

 14 14  0  0  0  0  0  0  0  0999 V2000
    5.3110  -13.4408   25.1508 O   0  0  0  0  0  0  0  0  0  0  0  0
    4.1952  -13.2197   24.9100 C   0  0  0  0  0  0  0  0  0  0  0  0
    3.5659  -12.3956   23.7755 N   0  0  0  0  0  0  0  0  0  0  0  0
    4.1773  -11.7432   22.6349 C   0  0  0  0  0  0  0  0  0  0  0  0
    4.3068  -10.2258   22.7528 C   0  0  0  0  0  0  0  0  0  0  0  0
    3.0852   -9.6246   22.7572 F   0  0  0  0  0  0  0  0  0  0  0  0
    4.9874   -9.7116   21.7033 F   0  0  0  0  0  0  0  0  0  0  0  0
    4.9383   -9.8348   23.8795 F   0  0  0  0  0  0  0  0  0  0  0  0
    3.1453  -13.7494   25.7903 C   0  0  0  0  0  0  0  0  0  0  0  0
    1.5508  -13.0980   25.8381 S   0  0  0  0  0  0  0  0  0  0  0  0
    1.1462  -14.1737   27.1024 C   0  0  0  0  0  0  0  0  0  0  0  0
    2.0842  -15.0156   27.4591 N   0  0  0  0  0  0  0  0  0  0  0  0
    3.2335  -14.7773   26.7168 C   0  0  0  0  0  0  0  0  0  0  0  0
    4.5977  -15.7720   26.9900 Cl  0  0  0  0  0  0  0  0  0  0  0  0
  1  2  2  0
  2  3  1  0
  3  4  1  0
  4  5  1  0
  5  6  1  0
  5  7  1  0
  5  8  1  0
  2  9  1  0
  9 10  1  0
 10 11  1  0
 11 12  2  0
 12 13  1  0
 13 14  1  0
 13  9  2  0
M  END
>  <inchikey>  (770) 
UNPXXNUKHWBCQH-UHFFFAOYSA-N

>  <tags>  (770) 
fragmenstein_placed,CpKRS_FrAncestor_bulkdock_iter2

>  <ref_pdb>  (770) 
x0485c

>  <energy_score>  (770) 
-32.564611

>  <distance_score>  (770) 
0.318193

>  <HIPPO Pose ID>  (770) 
56496

>  <ref_mols>  (770) 
x0504a

>  <smiles>  (770) 
O=C(NCC(F)(F)F)c1scnc1Cl

>  <HIPPO Compound ID>  (770) 
34459

>  <alias>  (770) 
UNPXXNUKHWBCQH-UHFFFAOYSA-N-P48

>  <subsites>  (770) 


>  <placement_batch>  (770) 
CpKRS_FrAncestor_bulkdock_iter2

>  <name>  (770) 
UNPXXNUKHWBCQH-UHFFFAOYSA-N-P48

$$$$
GMKLKGVRFMYKGM-UHFFFAOYSA-N-P47
     RDKit          3D

 16 16  0  0  0  0  0  0  0  0999 V2000
    4.2160    8.1313   42.7800 O   0  0  0  0  0  0  0  0  0  0  0  0
    3.4588    7.8641   41.9301 C   0  0  0  0  0  0  0  0  0  0  0  0
    2.4978    6.6494   41.7821 N   0  0  0  0  0  0  0  0  0  0  0  0
    2.2058    5.5684   42.6943 C   0  0  0  0  0  0  0  0  0  0  0  0
    3.3581    4.8805   43.3960 C   0  0  0  0  0  0  0  0  0  0  0  0
    3.8662    5.6387   44.3862 F   0  0  0  0  0  0  0  0  0  0  0  0
    2.9331    3.7243   43.9619 F   0  0  0  0  0  0  0  0  0  0  0  0
    4.3413    4.5654   42.5310 F   0  0  0  0  0  0  0  0  0  0  0  0
    3.1801    8.8153   40.7248 C   0  0  0  0  0  0  0  0  0  0  0  0
    2.9015    8.1026   39.5873 F   0  0  0  0  0  0  0  0  0  0  0  0
    4.2692    9.5811   40.4134 F   0  0  0  0  0  0  0  0  0  0  0  0
    1.9738    9.6502   41.0883 C   0  0  0  0  0  0  0  0  0  0  0  0
    0.7177    9.3269   40.8127 N   0  0  0  0  0  0  0  0  0  0  0  0
   -0.1351   10.3168   41.2588 C   0  0  0  0  0  0  0  0  0  0  0  0
    0.4701   11.3851   41.8803 C   0  0  0  0  0  0  0  0  0  0  0  0
    2.1628   11.1441   41.9170 S   0  0  0  0  0  0  0  0  0  0  0  0
  1  2  2  0
  2  3  1  0
  3  4  1  0
  4  5  1  0
  5  6  1  0
  5  7  1  0
  5  8  1  0
  2  9  1  0
  9 10  1  0
  9 11  1  0
  9 12  1  0
 12 13  2  0
 13 14  1  0
 14 15  2  0
 15 16  1  0
 16 12  1  0
M  END
>  <inchikey>  (771) 
GMKLKGVRFMYKGM-UHFFFAOYSA-N

>  <tags>  (771) 
fragmenstein_placed,CpKRS_FrAncestor_bulkdock_iter2

>  <ref_pdb>  (771) 
x0485c

>  <energy_score>  (771) 
-54.413862

>  <distance_score>  (771) 
0.839986

>  <HIPPO Pose ID>  (771) 
56504

>  <ref_mols>  (771) 
x0504c

>  <smiles>  (771) 
O=C(NCC(F)(F)F)C(F)(F)c1nccs1

>  <HIPPO Compound ID>  (771) 
34461

>  <alias>  (771) 
GMKLKGVRFMYKGM-UHFFFAOYSA-N-P47

>  <subsites>  (771) 


>  <placement_batch>  (771) 
CpKRS_FrAncestor_bulkdock_iter2

>  <name>  (771) 
GMKLKGVRFMYKGM-UHFFFAOYSA-N-P47

$$$$
NMERALDOBNLWCR-HTQZYQBOSA-N-P45
     RDKit          3D

 15 16  0  0  0  0  0  0  0  0999 V2000
    5.6340  -13.6612   25.1429 O   0  0  0  0  0  0  0  0  0  0  0  0
    4.4970  -13.4306   25.0362 C   0  0  0  0  0  0  0  0  0  0  0  0
    3.7503  -12.5389   24.0270 N   0  0  0  0  0  0  0  0  0  0  0  0
    4.2340  -11.8192   22.8797 C   0  0  0  0  0  0  0  0  0  0  0  0
    4.1859  -10.3081   23.0692 C   0  0  1  0  0  0  0  0  0  0  0  0
    5.0136   -9.8004   24.2526 C   0  0  0  0  0  0  0  0  0  0  0  0
    5.5153   -8.4084   23.8655 C   0  0  0  0  0  0  0  0  0  0  0  0
    4.9999   -8.1581   22.4547 C   0  0  0  0  0  0  0  0  0  0  0  0
    4.7808   -9.5461   21.8944 C   0  0  1  0  0  0  0  0  0  0  0  0
    5.9888  -10.0660   21.5745 F   0  0  0  0  0  0  0  0  0  0  0  0
    3.5687  -13.9949   26.0177 C   0  0  0  0  0  0  0  0  0  0  0  0
    3.8518  -14.9874   26.9405 C   0  0  0  0  0  0  0  0  0  0  0  0
    2.8654  -15.2629   27.8680 N   0  0  0  0  0  0  0  0  0  0  0  0
    1.8353  -14.4917   27.6188 C   0  0  0  0  0  0  0  0  0  0  0  0
    1.9530  -13.4609   26.2541 S   0  0  0  0  0  0  0  0  0  0  0  0
  1  2  2  0
  2  3  1  0
  3  4  1  0
  5  4  1  6
  5  6  1  0
  6  7  1  0
  7  8  1  0
  8  9  1  0
  9 10  1  1
  2 11  1  0
 11 12  2  0
 12 13  1  0
 13 14  2  0
 14 15  1  0
  9  5  1  0
 15 11  1  0
M  END
>  <inchikey>  (772) 
NMERALDOBNLWCR-UHFFFAOYSA-N

>  <tags>  (772) 
fragmenstein_placed,CpKRS_FrAncestor_bulkdock_iter2

>  <ref_pdb>  (772) 
x0485c

>  <energy_score>  (772) 
-36.74674

>  <distance_score>  (772) 
0.360403

>  <HIPPO Pose ID>  (772) 
56505

>  <ref_mols>  (772) 
x0502a

>  <smiles>  (772) 
O=C(NC[C@H]1CCC[C@H]1F)c1cncs1

>  <HIPPO Compound ID>  (772) 
34462

>  <alias>  (772) 
NMERALDOBNLWCR-HTQZYQBOSA-N-P45

>  <subsites>  (772) 


>  <placement_batch>  (772) 
CpKRS_FrAncestor_bulkdock_iter2

>  <name>  (772) 
NMERALDOBNLWCR-HTQZYQBOSA-N-P45

$$$$
BBYKELSQOOZTEY-RNFRBKRXSA-N-P44
     RDKit          3D

 16 17  0  0  0  0  0  0  0  0999 V2000
  -11.4856  -12.1040   45.6212 O   0  0  0  0  0  0  0  0  0  0  0  0
  -10.9842  -12.9657   46.2259 C   0  0  0  0  0  0  0  0  0  0  0  0
  -11.3595  -14.4572   46.3378 N   0  0  0  0  0  0  0  0  0  0  0  0
  -12.4887  -15.1836   45.8035 C   0  0  0  0  0  0  0  0  0  0  0  0
  -12.4239  -15.2987   44.2754 C   0  0  1  0  0  0  0  0  0  0  0  0
  -11.4873  -16.4250   43.8238 C   0  0  0  0  0  0  0  0  0  0  0  0
  -12.3580  -17.6754   43.6642 C   0  0  0  0  0  0  0  0  0  0  0  0
  -13.7986  -17.2269   43.8635 C   0  0  0  0  0  0  0  0  0  0  0  0
  -13.7503  -15.7269   43.6561 C   0  0  1  0  0  0  0  0  0  0  0  0
  -14.8036  -15.1226   44.2438 F   0  0  0  0  0  0  0  0  0  0  0  0
   -9.8156  -12.6492   47.0594 C   0  0  0  0  0  0  0  0  0  0  0  0
   -8.8923  -11.2366   46.6612 S   0  0  0  0  0  0  0  0  0  0  0  0
   -7.8768  -11.5243   47.9996 C   0  0  0  0  0  0  0  0  0  0  0  0
   -8.1673  -12.5703   48.7329 N   0  0  0  0  0  0  0  0  0  0  0  0
   -9.2643  -13.2278   48.1931 C   0  0  0  0  0  0  0  0  0  0  0  0
   -9.8338  -14.6237   49.0139 Cl  0  0  0  0  0  0  0  0  0  0  0  0
  1  2  2  0
  2  3  1  0
  3  4  1  0
  5  4  1  1
  5  6  1  0
  6  7  1  0
  7  8  1  0
  8  9  1  0
  9 10  1  1
  2 11  1  0
 11 12  1  0
 12 13  1  0
 13 14  2  0
 14 15  1  0
 15 16  1  0
  9  5  1  0
 15 11  2  0
M  END
>  <inchikey>  (773) 
BBYKELSQOOZTEY-UHFFFAOYSA-N

>  <tags>  (773) 
fragmenstein_placed,CpKRS_FrAncestor_bulkdock_iter2

>  <ref_pdb>  (773) 
x0485c

>  <energy_score>  (773) 
-48.55918

>  <distance_score>  (773) 
0.31811

>  <HIPPO Pose ID>  (773) 
56509

>  <ref_mols>  (773) 
x0502b

>  <smiles>  (773) 
O=C(NC[C@H]1CCC[C@H]1F)c1scnc1Cl

>  <HIPPO Compound ID>  (773) 
34463

>  <alias>  (773) 
BBYKELSQOOZTEY-RNFRBKRXSA-N-P44

>  <subsites>  (773) 


>  <placement_batch>  (773) 
CpKRS_FrAncestor_bulkdock_iter2

>  <name>  (773) 
BBYKELSQOOZTEY-RNFRBKRXSA-N-P44

$$$$
UALCITQVOVZZNE-YUMQZZPRSA-N-P44
     RDKit          3D

 18 19  0  0  0  0  0  0  0  0999 V2000
  -11.8154  -11.9849   45.8462 O   0  0  0  0  0  0  0  0  0  0  0  0
  -11.2290  -12.8700   46.3279 C   0  0  0  0  0  0  0  0  0  0  0  0
  -11.5611  -14.3757   46.3847 N   0  0  0  0  0  0  0  0  0  0  0  0
  -12.6368  -15.1211   45.7789 C   0  0  0  0  0  0  0  0  0  0  0  0
  -12.4557  -15.2676   44.2609 C   0  0  1  0  0  0  0  0  0  0  0  0
  -11.4566  -16.3735   43.9083 C   0  0  0  0  0  0  0  0  0  0  0  0
  -12.2723  -17.6265   43.5883 C   0  0  0  0  0  0  0  0  0  0  0  0
  -13.7416  -17.2368   43.7320 C   0  0  2  0  0  0  0  0  0  0  0  0
  -14.6456  -17.9556   42.7519 C   0  0  0  0  0  0  0  0  0  0  0  0
  -15.9334  -17.5875   42.9262 F   0  0  0  0  0  0  0  0  0  0  0  0
  -14.3106  -17.6887   41.4716 F   0  0  0  0  0  0  0  0  0  0  0  0
  -14.5757  -19.2946   42.9241 F   0  0  0  0  0  0  0  0  0  0  0  0
  -13.7388  -15.7210   43.5588 C   0  0  0  0  0  0  0  0  0  0  0  0
  -10.0013  -12.5998   47.0792 C   0  0  0  0  0  0  0  0  0  0  0  0
   -9.4444  -13.2319   48.1771 C   0  0  0  0  0  0  0  0  0  0  0  0
   -8.2939  -12.6601   48.6921 N   0  0  0  0  0  0  0  0  0  0  0  0
   -7.9728  -11.6158   47.9636 C   0  0  0  0  0  0  0  0  0  0  0  0
   -9.0247  -11.2417   46.6667 S   0  0  0  0  0  0  0  0  0  0  0  0
  1  2  2  0
  2  3  1  0
  3  4  1  0
  5  4  1  1
  5  6  1  0
  6  7  1  0
  7  8  1  0
  8  9  1  6
  9 10  1  0
  9 11  1  0
  9 12  1  0
  8 13  1  0
  2 14  1  0
 14 15  2  0
 15 16  1  0
 16 17  2  0
 17 18  1  0
 13  5  1  0
 18 14  1  0
M  END
>  <inchikey>  (774) 
UALCITQVOVZZNE-UHFFFAOYSA-N

>  <tags>  (774) 
fragmenstein_placed,CpKRS_FrAncestor_bulkdock_iter2

>  <ref_pdb>  (774) 
x0485c

>  <energy_score>  (774) 
-42.263691

>  <distance_score>  (774) 
0.339734

>  <HIPPO Pose ID>  (774) 
56512

>  <ref_mols>  (774) 
x0502b

>  <smiles>  (774) 
O=C(NC[C@H]1CC[C@H](C(F)(F)F)C1)c1cncs1

>  <HIPPO Compound ID>  (774) 
34464

>  <alias>  (774) 
UALCITQVOVZZNE-YUMQZZPRSA-N-P44

>  <subsites>  (774) 


>  <placement_batch>  (774) 
CpKRS_FrAncestor_bulkdock_iter2

>  <name>  (774) 
UALCITQVOVZZNE-YUMQZZPRSA-N-P44

$$$$
JHJRSNQIBGUFJU-UHFFFAOYSA-N-P49
     RDKit          3D

 15 15  0  0  0  0  0  0  0  0999 V2000
    4.3317  -11.1204   21.7667 O   0  0  0  0  0  0  0  0  0  0  0  0
    4.3965  -10.9155   22.9177 C   0  0  0  0  0  0  0  0  0  0  0  0
    4.4027  -11.9090   24.1231 N   0  0  0  0  0  0  0  0  0  0  0  0
    4.2354  -13.3402   24.1564 C   0  0  0  0  0  0  0  0  0  0  0  0
    3.2597  -13.7037   25.2244 C   0  0  0  0  0  0  0  0  0  0  0  0
    1.7271  -12.9214   25.3229 S   0  0  0  0  0  0  0  0  0  0  0  0
    1.3594  -13.8722   26.6694 C   0  0  0  0  0  0  0  0  0  0  0  0
   -0.1579  -13.6664   27.4298 Cl  0  0  0  0  0  0  0  0  0  0  0  0
    2.2400  -14.7515   27.0609 N   0  0  0  0  0  0  0  0  0  0  0  0
    3.3443  -14.6585   26.2291 C   0  0  0  0  0  0  0  0  0  0  0  0
    4.6784  -15.7023   26.4797 Cl  0  0  0  0  0  0  0  0  0  0  0  0
    4.4894   -9.4785   23.5082 C   0  0  0  0  0  0  0  0  0  0  0  0
    3.3986   -8.7087   23.2085 F   0  0  0  0  0  0  0  0  0  0  0  0
    5.5747   -8.7963   23.0546 F   0  0  0  0  0  0  0  0  0  0  0  0
    4.5875   -9.4893   24.8718 F   0  0  0  0  0  0  0  0  0  0  0  0
  1  2  2  0
  2  3  1  0
  3  4  1  0
  4  5  1  0
  5  6  1  0
  6  7  1  0
  7  8  1  0
  7  9  2  0
  9 10  1  0
 10 11  1  0
  2 12  1  0
 12 13  1  0
 12 14  1  0
 12 15  1  0
 10  5  2  0
M  END
>  <inchikey>  (775) 
JHJRSNQIBGUFJU-UHFFFAOYSA-N

>  <tags>  (775) 
fragmenstein_placed,CpKRS_FrAncestor_bulkdock_iter2

>  <ref_pdb>  (775) 
x0485c

>  <energy_score>  (775) 
-35.122314

>  <distance_score>  (775) 
0.64126

>  <HIPPO Pose ID>  (775) 
56518

>  <ref_mols>  (775) 
x0504b

>  <smiles>  (775) 
O=C(NCc1sc(Cl)nc1Cl)C(F)(F)F

>  <HIPPO Compound ID>  (775) 
34468

>  <alias>  (775) 
JHJRSNQIBGUFJU-UHFFFAOYSA-N-P49

>  <subsites>  (775) 


>  <placement_batch>  (775) 
CpKRS_FrAncestor_bulkdock_iter2

>  <name>  (775) 
JHJRSNQIBGUFJU-UHFFFAOYSA-N-P49

$$$$
MVLONHHWYQEVLP-UHFFFAOYSA-N-P49
     RDKit          3D

 14 14  0  0  0  0  0  0  0  0999 V2000
    4.4187  -11.2195   21.7819 O   0  0  0  0  0  0  0  0  0  0  0  0
    4.4943  -11.0494   22.9352 C   0  0  0  0  0  0  0  0  0  0  0  0
    4.4565  -12.0687   24.1076 N   0  0  0  0  0  0  0  0  0  0  0  0
    4.2236  -13.4881   24.1037 C   0  0  0  0  0  0  0  0  0  0  0  0
    3.2608  -13.8146   25.1951 C   0  0  0  0  0  0  0  0  0  0  0  0
    1.7322  -13.0220   25.2846 S   0  0  0  0  0  0  0  0  0  0  0  0
    1.3810  -13.9176   26.6728 C   0  0  0  0  0  0  0  0  0  0  0  0
   -0.1239  -13.6751   27.4475 Cl  0  0  0  0  0  0  0  0  0  0  0  0
    2.2639  -14.7849   27.0854 N   0  0  0  0  0  0  0  0  0  0  0  0
    3.3578  -14.7265   26.2367 C   0  0  0  0  0  0  0  0  0  0  0  0
    4.6971  -15.7551   26.5134 Cl  0  0  0  0  0  0  0  0  0  0  0  0
    4.5988   -9.6534   23.5726 C   0  0  0  0  0  0  0  0  0  0  0  0
    5.5395   -8.8672   22.9848 F   0  0  0  0  0  0  0  0  0  0  0  0
    4.9212   -9.7067   24.8995 F   0  0  0  0  0  0  0  0  0  0  0  0
  1  2  2  0
  2  3  1  0
  3  4  1  0
  4  5  1  0
  5  6  1  0
  6  7  1  0
  7  8  1  0
  7  9  2  0
  9 10  1  0
 10 11  1  0
  2 12  1  0
 12 13  1  0
 12 14  1  0
 10  5  2  0
M  END
>  <inchikey>  (776) 
MVLONHHWYQEVLP-UHFFFAOYSA-N

>  <tags>  (776) 
fragmenstein_placed,CpKRS_FrAncestor_bulkdock_iter2

>  <ref_pdb>  (776) 
x0485c

>  <energy_score>  (776) 
-64.516468

>  <distance_score>  (776) 
0.653942

>  <HIPPO Pose ID>  (776) 
56521

>  <ref_mols>  (776) 
x0504b

>  <smiles>  (776) 
O=C(NCc1sc(Cl)nc1Cl)C(F)F

>  <HIPPO Compound ID>  (776) 
34469

>  <alias>  (776) 
MVLONHHWYQEVLP-UHFFFAOYSA-N-P49

>  <subsites>  (776) 


>  <placement_batch>  (776) 
CpKRS_FrAncestor_bulkdock_iter2

>  <name>  (776) 
MVLONHHWYQEVLP-UHFFFAOYSA-N-P49

$$$$
GAKUIHVLCNVVDT-UHFFFAOYSA-N-P49
     RDKit          3D

 14 14  0  0  0  0  0  0  0  0999 V2000
    4.2322  -11.0943   21.8367 O   0  0  0  0  0  0  0  0  0  0  0  0
    4.1413  -10.8965   22.9874 C   0  0  0  0  0  0  0  0  0  0  0  0
    3.7843  -11.8695   24.1556 N   0  0  0  0  0  0  0  0  0  0  0  0
    3.5625  -13.2921   24.1519 C   0  0  0  0  0  0  0  0  0  0  0  0
    2.8764  -13.7174   25.4043 C   0  0  0  0  0  0  0  0  0  0  0  0
    1.3612  -13.0292   25.8628 S   0  0  0  0  0  0  0  0  0  0  0  0
    1.3462  -14.0195   27.2557 C   0  0  0  0  0  0  0  0  0  0  0  0
    2.3476  -14.8526   27.3895 N   0  0  0  0  0  0  0  0  0  0  0  0
    3.2284  -14.6719   26.3426 C   0  0  0  0  0  0  0  0  0  0  0  0
    4.7998  -15.7269   26.2689 Br  0  0  0  0  0  0  0  0  0  0  0  0
    4.3362   -9.4820   23.6027 C   0  0  0  0  0  0  0  0  0  0  0  0
    3.2889   -8.6431   23.3314 F   0  0  0  0  0  0  0  0  0  0  0  0
    5.4526   -8.8568   23.1397 F   0  0  0  0  0  0  0  0  0  0  0  0
    4.4577   -9.5227   24.9621 F   0  0  0  0  0  0  0  0  0  0  0  0
  1  2  2  0
  2  3  1  0
  3  4  1  0
  4  5  1  0
  5  6  1  0
  6  7  1  0
  7  8  2  0
  8  9  1  0
  9 10  1  0
  2 11  1  0
 11 12  1  0
 11 13  1  0
 11 14  1  0
  9  5  2  0
M  END
>  <inchikey>  (777) 
GAKUIHVLCNVVDT-UHFFFAOYSA-N

>  <tags>  (777) 
fragmenstein_placed,CpKRS_FrAncestor_bulkdock_iter2

>  <ref_pdb>  (777) 
x0485c

>  <energy_score>  (777) 
-46.796239

>  <distance_score>  (777) 
0.507668

>  <HIPPO Pose ID>  (777) 
56524

>  <ref_mols>  (777) 
x0504b

>  <smiles>  (777) 
O=C(NCc1scnc1Br)C(F)(F)F

>  <HIPPO Compound ID>  (777) 
34470

>  <alias>  (777) 
GAKUIHVLCNVVDT-UHFFFAOYSA-N-P49

>  <subsites>  (777) 


>  <placement_batch>  (777) 
CpKRS_FrAncestor_bulkdock_iter2

>  <name>  (777) 
GAKUIHVLCNVVDT-UHFFFAOYSA-N-P49

$$$$
QGHBOTLPLOAEKS-UHFFFAOYSA-N-P49
     RDKit          3D

 13 13  0  0  0  0  0  0  0  0999 V2000
    3.9918  -11.0495   21.9325 O   0  0  0  0  0  0  0  0  0  0  0  0
    4.0896  -10.9377   23.0913 C   0  0  0  0  0  0  0  0  0  0  0  0
    3.8555  -11.9732   24.2255 N   0  0  0  0  0  0  0  0  0  0  0  0
    3.5473  -13.3761   24.1595 C   0  0  0  0  0  0  0  0  0  0  0  0
    2.8721  -13.7996   25.4179 C   0  0  0  0  0  0  0  0  0  0  0  0
    1.3556  -13.1172   25.8805 S   0  0  0  0  0  0  0  0  0  0  0  0
    1.3630  -14.0881   27.2873 C   0  0  0  0  0  0  0  0  0  0  0  0
    2.3741  -14.9090   27.4242 N   0  0  0  0  0  0  0  0  0  0  0  0
    3.2433  -14.7346   26.3668 C   0  0  0  0  0  0  0  0  0  0  0  0
    4.8299  -15.7643   26.2946 Br  0  0  0  0  0  0  0  0  0  0  0  0
    4.3976   -9.5939   23.7716 C   0  0  0  0  0  0  0  0  0  0  0  0
    5.3265   -8.8582   23.1024 F   0  0  0  0  0  0  0  0  0  0  0  0
    4.8727   -9.7446   25.0407 F   0  0  0  0  0  0  0  0  0  0  0  0
  1  2  2  0
  2  3  1  0
  3  4  1  0
  4  5  1  0
  5  6  1  0
  6  7  1  0
  7  8  2  0
  8  9  1  0
  9 10  1  0
  2 11  1  0
 11 12  1  0
 11 13  1  0
  9  5  2  0
M  END
>  <inchikey>  (778) 
QGHBOTLPLOAEKS-UHFFFAOYSA-N

>  <tags>  (778) 
fragmenstein_placed,CpKRS_FrAncestor_bulkdock_iter2

>  <ref_pdb>  (778) 
x0485c

>  <energy_score>  (778) 
-28.202247

>  <distance_score>  (778) 
0.49646

>  <HIPPO Pose ID>  (778) 
56527

>  <ref_mols>  (778) 
x0504b

>  <smiles>  (778) 
O=C(NCc1scnc1Br)C(F)F

>  <HIPPO Compound ID>  (778) 
34471

>  <alias>  (778) 
QGHBOTLPLOAEKS-UHFFFAOYSA-N-P49

>  <subsites>  (778) 


>  <placement_batch>  (778) 
CpKRS_FrAncestor_bulkdock_iter2

>  <name>  (778) 
QGHBOTLPLOAEKS-UHFFFAOYSA-N-P49

$$$$
YZVWMFBVTTUSAW-UHFFFAOYSA-N-P7
     RDKit          3D

  9  9  0  0  0  0  0  0  0  0999 V2000
    3.7257   -8.8517   23.4882 S   0  0  0  0  0  0  0  0  0  0  0  0
    5.0873   -8.7371   24.7014 C   0  0  0  0  0  0  0  0  0  0  0  0
    5.6310  -10.1365   25.0267 C   0  0  0  0  0  0  0  0  0  0  0  0
    4.5808  -11.0727   25.4524 N   0  0  0  0  0  0  0  0  0  0  0  0
    5.0334  -12.4750   25.3607 C   0  0  0  0  0  0  0  0  0  0  0  0
    3.9205  -13.4405   25.7868 C   0  0  0  0  0  0  0  0  0  0  0  0
    3.4928  -13.1611   27.1193 O   0  0  0  0  0  0  0  0  0  0  0  0
    3.0124  -11.8187   27.2249 C   0  0  0  0  0  0  0  0  0  0  0  0
    4.1059  -10.8147   26.8309 C   0  0  0  0  0  0  0  0  0  0  0  0
  1  2  1  0
  2  3  1  0
  3  4  1  0
  4  5  1  0
  5  6  1  0
  6  7  1  0
  7  8  1  0
  8  9  1  0
  9  4  1  0
M  END
>  <inchikey>  (779) 
YZVWMFBVTTUSAW-UHFFFAOYSA-N

>  <tags>  (779) 
fragmenstein_placed,CpKRS_FrAncestor_bulkdock_iter2

>  <ref_pdb>  (779) 
x0485c

>  <energy_score>  (779) 
-43.884463

>  <distance_score>  (779) 
0.428182

>  <HIPPO Pose ID>  (779) 
56550

>  <ref_mols>  (779) 
x0414b

>  <smiles>  (779) 
SCCN1CCOCC1

>  <HIPPO Compound ID>  (779) 
34482

>  <alias>  (779) 
YZVWMFBVTTUSAW-UHFFFAOYSA-N-P7

>  <subsites>  (779) 


>  <placement_batch>  (779) 
CpKRS_FrAncestor_bulkdock_iter2

>  <name>  (779) 
YZVWMFBVTTUSAW-UHFFFAOYSA-N-P7

$$$$
VVQVMHASNBSOOC-UHFFFAOYSA-N-P31
     RDKit          3D

 12 12  0  0  0  0  0  0  0  0999 V2000
    6.4917    7.6130   38.2794 O   0  0  0  0  0  0  0  0  0  0  0  0
    6.5433    9.0558   38.1866 S   0  0  0  0  0  0  0  0  0  0  0  0
    6.5672    9.7240   36.9065 O   0  0  0  0  0  0  0  0  0  0  0  0
    7.8295    9.5742   39.0026 O   0  0  0  0  0  0  0  0  0  0  0  0
    5.1505    9.6568   39.1022 C   0  0  0  0  0  0  0  0  0  0  0  0
    4.9138    9.1340   40.3739 C   0  0  0  0  0  0  0  0  0  0  0  0
    3.7715    9.5256   41.0720 C   0  0  0  0  0  0  0  0  0  0  0  0
    2.8679   10.4479   40.5184 C   0  0  0  0  0  0  0  0  0  0  0  0
    1.6269   10.8169   41.2933 C   0  0  0  0  0  0  0  0  0  0  0  0
    0.9709   11.9418   40.7249 O   0  0  0  0  0  0  0  0  0  0  0  0
    3.1285   10.9608   39.2386 C   0  0  0  0  0  0  0  0  0  0  0  0
    4.2633   10.5658   38.5273 C   0  0  0  0  0  0  0  0  0  0  0  0
  1  2  2  0
  2  3  2  0
  2  4  1  0
  2  5  1  0
  5  6  2  0
  6  7  1  0
  7  8  2  0
  8  9  1  0
  9 10  1  0
  8 11  1  0
 11 12  2  0
 12  5  1  0
M  END
>  <inchikey>  (780) 
VVQVMHASNBSOOC-UHFFFAOYSA-N

>  <tags>  (780) 
fragmenstein_placed,CpKRS_FrAncestor_bulkdock_iter2

>  <ref_pdb>  (780) 
x0485c

>  <energy_score>  (780) 
-23.565025

>  <distance_score>  (780) 
0.39811

>  <HIPPO Pose ID>  (780) 
56552

>  <ref_mols>  (780) 
x0487b

>  <smiles>  (780) 
O=S(=O)(O)c1ccc(CO)cc1

>  <HIPPO Compound ID>  (780) 
34483

>  <alias>  (780) 
VVQVMHASNBSOOC-UHFFFAOYSA-N-P31

>  <subsites>  (780) 


>  <placement_batch>  (780) 
CpKRS_FrAncestor_bulkdock_iter2

>  <name>  (780) 
VVQVMHASNBSOOC-UHFFFAOYSA-N-P31

$$$$
CHVZPRDGLWBEMJ-UHFFFAOYSA-N-P54
     RDKit          3D

 11 11  0  0  0  0  0  0  0  0999 V2000
    5.2067  -36.2488    9.7998 O   0  0  0  0  0  0  0  0  0  0  0  0
    6.6523  -36.1845    9.8364 S   0  0  0  0  0  0  0  0  0  0  0  0
    7.3210  -34.9258   10.1112 O   0  0  0  0  0  0  0  0  0  0  0  0
    7.2985  -36.7974    8.4180 N   0  0  0  0  0  0  0  0  0  0  0  0
    6.4868  -38.0852    7.6374 Cl  0  0  0  0  0  0  0  0  0  0  0  0
    7.2376  -37.3458   11.0455 C   0  0  0  0  0  0  0  0  0  0  0  0
    8.5587  -37.2547   11.4964 C   0  0  0  0  0  0  0  0  0  0  0  0
    8.9854  -38.0852   12.5307 C   0  0  0  0  0  0  0  0  0  0  0  0
    8.0971  -38.9925   13.1095 C   0  0  0  0  0  0  0  0  0  0  0  0
    6.7810  -39.0806   12.6546 C   0  0  0  0  0  0  0  0  0  0  0  0
    6.3440  -38.2545   11.6206 C   0  0  0  0  0  0  0  0  0  0  0  0
  1  2  2  0
  2  3  2  0
  2  4  1  0
  4  5  1  0
  2  6  1  0
  6  7  2  0
  7  8  1  0
  8  9  2  0
  9 10  1  0
 10 11  2  0
 11  6  1  0
M  END
>  <inchikey>  (781) 
CHVZPRDGLWBEMJ-UHFFFAOYSA-N

>  <tags>  (781) 
fragmenstein_placed,CpKRS_FrAncestor_bulkdock_iter2

>  <ref_pdb>  (781) 
x0485c

>  <energy_score>  (781) 
-18.994479

>  <distance_score>  (781) 
0.329073

>  <HIPPO Pose ID>  (781) 
56555

>  <ref_mols>  (781) 
x0639c

>  <smiles>  (781) 
O=S(=O)(NCl)c1ccccc1

>  <HIPPO Compound ID>  (781) 
34484

>  <alias>  (781) 
CHVZPRDGLWBEMJ-UHFFFAOYSA-N-P54

>  <subsites>  (781) 


>  <placement_batch>  (781) 
CpKRS_FrAncestor_bulkdock_iter2

>  <name>  (781) 
CHVZPRDGLWBEMJ-UHFFFAOYSA-N-P54

$$$$
BRMDATNYMUMZLN-UHFFFAOYSA-N-P54
     RDKit          3D

 11 11  0  0  0  0  0  0  0  0999 V2000
    7.3071  -34.9390   10.0998 O   0  0  0  0  0  0  0  0  0  0  0  0
    6.6500  -36.1981    9.8146 S   0  0  0  0  0  0  0  0  0  0  0  0
    5.2055  -36.2929    9.7340 O   0  0  0  0  0  0  0  0  0  0  0  0
    7.2880  -36.8385    8.3654 N   0  0  0  0  0  0  0  0  0  0  0  0
    6.4400  -37.9445    7.9614 O   0  0  0  0  0  0  0  0  0  0  0  0
    7.2238  -37.3633   11.0260 C   0  0  0  0  0  0  0  0  0  0  0  0
    6.3316  -38.2840   11.5823 C   0  0  0  0  0  0  0  0  0  0  0  0
    6.7615  -39.1091   12.6203 C   0  0  0  0  0  0  0  0  0  0  0  0
    8.0684  -39.0071   13.0985 C   0  0  0  0  0  0  0  0  0  0  0  0
    8.9548  -38.0857   12.5401 C   0  0  0  0  0  0  0  0  0  0  0  0
    8.5355  -37.2562   11.5021 C   0  0  0  0  0  0  0  0  0  0  0  0
  1  2  2  0
  2  3  2  0
  2  4  1  0
  4  5  1  0
  2  6  1  0
  6  7  2  0
  7  8  1  0
  8  9  2  0
  9 10  1  0
 10 11  2  0
 11  6  1  0
M  END
>  <inchikey>  (782) 
BRMDATNYMUMZLN-UHFFFAOYSA-N

>  <tags>  (782) 
fragmenstein_placed,CpKRS_FrAncestor_bulkdock_iter2

>  <ref_pdb>  (782) 
x0485c

>  <energy_score>  (782) 
-18.19393

>  <distance_score>  (782) 
0.328953

>  <HIPPO Pose ID>  (782) 
56558

>  <ref_mols>  (782) 
x0639c

>  <smiles>  (782) 
O=S(=O)(NO)c1ccccc1

>  <HIPPO Compound ID>  (782) 
34485

>  <alias>  (782) 
BRMDATNYMUMZLN-UHFFFAOYSA-N-P54

>  <subsites>  (782) 


>  <placement_batch>  (782) 
CpKRS_FrAncestor_bulkdock_iter2

>  <name>  (782) 
BRMDATNYMUMZLN-UHFFFAOYSA-N-P54

$$$$
IXSGUIFSMPTAGW-UHFFFAOYSA-N-P54
     RDKit          3D

 14 14  0  0  0  0  0  0  0  0999 V2000
    5.1430  -36.3501    9.7416 O   0  0  0  0  0  0  0  0  0  0  0  0
    6.5825  -36.2228    9.7823 S   0  0  0  0  0  0  0  0  0  0  0  0
    7.2075  -34.9508   10.0750 O   0  0  0  0  0  0  0  0  0  0  0  0
    7.1761  -36.7470    8.3799 O   0  0  0  0  0  0  0  0  0  0  0  0
    7.2063  -37.3796   10.9925 C   0  0  0  0  0  0  0  0  0  0  0  0
    6.2786  -38.1967   11.6568 C   0  0  0  0  0  0  0  0  0  0  0  0
    6.6964  -39.0153   12.7033 C   0  0  0  0  0  0  0  0  0  0  0  0
    8.0320  -39.0173   13.0924 C   0  0  0  0  0  0  0  0  0  0  0  0
    8.9590  -38.2145   12.4263 C   0  0  0  0  0  0  0  0  0  0  0  0
    8.5677  -37.3869   11.3580 C   0  0  0  0  0  0  0  0  0  0  0  0
    9.6066  -36.5150   10.7011 C   0  0  0  0  0  0  0  0  0  0  0  0
    9.4198  -36.3713    9.3562 F   0  0  0  0  0  0  0  0  0  0  0  0
    9.6447  -35.2616   11.2183 F   0  0  0  0  0  0  0  0  0  0  0  0
   10.8728  -37.0038   10.8280 F   0  0  0  0  0  0  0  0  0  0  0  0
  1  2  2  0
  2  3  2  0
  2  4  1  0
  2  5  1  0
  5  6  2  0
  6  7  1  0
  7  8  2  0
  8  9  1  0
  9 10  2  0
 10 11  1  0
 11 12  1  0
 11 13  1  0
 11 14  1  0
 10  5  1  0
M  END
>  <inchikey>  (783) 
IXSGUIFSMPTAGW-UHFFFAOYSA-N

>  <tags>  (783) 
fragmenstein_placed,CpKRS_FrAncestor_bulkdock_iter2

>  <ref_pdb>  (783) 
x0485c

>  <energy_score>  (783) 
-29.867902

>  <distance_score>  (783) 
0.240521

>  <HIPPO Pose ID>  (783) 
56561

>  <ref_mols>  (783) 
x0639c

>  <smiles>  (783) 
O=S(=O)(O)c1ccccc1C(F)(F)F

>  <HIPPO Compound ID>  (783) 
34486

>  <alias>  (783) 
IXSGUIFSMPTAGW-UHFFFAOYSA-N-P54

>  <subsites>  (783) 


>  <placement_batch>  (783) 
CpKRS_FrAncestor_bulkdock_iter2

>  <name>  (783) 
IXSGUIFSMPTAGW-UHFFFAOYSA-N-P54

$$$$
JIFAWAXKXDTUHW-UHFFFAOYSA-N-P54
     RDKit          3D

 11 11  0  0  0  0  0  0  0  0999 V2000
    5.2210  -36.3947    9.6760 O   0  0  0  0  0  0  0  0  0  0  0  0
    6.6470  -36.1766    9.7902 S   0  0  0  0  0  0  0  0  0  0  0  0
    7.1683  -34.8640   10.1156 O   0  0  0  0  0  0  0  0  0  0  0  0
    7.3305  -36.6140    8.3989 O   0  0  0  0  0  0  0  0  0  0  0  0
    7.2751  -37.3030   10.9853 C   0  0  0  0  0  0  0  0  0  0  0  0
    6.4151  -38.1569   11.6835 C   0  0  0  0  0  0  0  0  0  0  0  0
    6.9269  -38.9449   12.7148 C   0  0  0  0  0  0  0  0  0  0  0  0
    8.2831  -38.8756   13.0416 C   0  0  0  0  0  0  0  0  0  0  0  0
    9.1355  -38.0287   12.3307 C   0  0  0  0  0  0  0  0  0  0  0  0
    8.6262  -37.2424   11.3030 C   0  0  0  0  0  0  0  0  0  0  0  0
    9.4544  -36.4177   10.6445 F   0  0  0  0  0  0  0  0  0  0  0  0
  1  2  2  0
  2  3  2  0
  2  4  1  0
  2  5  1  0
  5  6  2  0
  6  7  1  0
  7  8  2  0
  8  9  1  0
  9 10  2  0
 10 11  1  0
 10  5  1  0
M  END
>  <inchikey>  (784) 
JIFAWAXKXDTUHW-UHFFFAOYSA-N

>  <tags>  (784) 
fragmenstein_placed,CpKRS_FrAncestor_bulkdock_iter2

>  <ref_pdb>  (784) 
x0485c

>  <energy_score>  (784) 
-17.49369

>  <distance_score>  (784) 
0.22522

>  <HIPPO Pose ID>  (784) 
56564

>  <ref_mols>  (784) 
x0639c

>  <smiles>  (784) 
O=S(=O)(O)c1ccccc1F

>  <HIPPO Compound ID>  (784) 
34487

>  <alias>  (784) 
JIFAWAXKXDTUHW-UHFFFAOYSA-N-P54

>  <subsites>  (784) 


>  <placement_batch>  (784) 
CpKRS_FrAncestor_bulkdock_iter2

>  <name>  (784) 
JIFAWAXKXDTUHW-UHFFFAOYSA-N-P54

$$$$
ZJTNYBYLBTVLRD-UHFFFAOYSA-N-P54
     RDKit          3D

 11 11  0  0  0  0  0  0  0  0999 V2000
    5.1252  -36.4200    9.6447 O   0  0  0  0  0  0  0  0  0  0  0  0
    6.5508  -36.2089    9.7788 S   0  0  0  0  0  0  0  0  0  0  0  0
    7.0607  -34.8915   10.1023 O   0  0  0  0  0  0  0  0  0  0  0  0
    7.2343  -36.6471    8.3878 O   0  0  0  0  0  0  0  0  0  0  0  0
    7.1697  -37.3442   10.9956 C   0  0  0  0  0  0  0  0  0  0  0  0
    6.2274  -38.1328   11.6797 C   0  0  0  0  0  0  0  0  0  0  0  0
    6.6273  -38.9563   12.7307 C   0  0  0  0  0  0  0  0  0  0  0  0
    7.9651  -38.9970   13.1062 C   0  0  0  0  0  0  0  0  0  0  0  0
    8.9078  -38.2285   12.4226 C   0  0  0  0  0  0  0  0  0  0  0  0
    8.5205  -37.3984   11.3608 C   0  0  0  0  0  0  0  0  0  0  0  0
   10.0714  -36.3270   10.4476 I   0  0  0  0  0  0  0  0  0  0  0  0
  1  2  2  0
  2  3  2  0
  2  4  1  0
  2  5  1  0
  5  6  2  0
  6  7  1  0
  7  8  2  0
  8  9  1  0
  9 10  2  0
 10 11  1  0
 10  5  1  0
M  END
>  <inchikey>  (785) 
ZJTNYBYLBTVLRD-UHFFFAOYSA-N

>  <tags>  (785) 
fragmenstein_placed,CpKRS_FrAncestor_bulkdock_iter2

>  <ref_pdb>  (785) 
x0485c

>  <energy_score>  (785) 
-18.326461

>  <distance_score>  (785) 
0.263748

>  <HIPPO Pose ID>  (785) 
56567

>  <ref_mols>  (785) 
x0639c

>  <smiles>  (785) 
O=S(=O)(O)c1ccccc1I

>  <HIPPO Compound ID>  (785) 
34488

>  <alias>  (785) 
ZJTNYBYLBTVLRD-UHFFFAOYSA-N-P54

>  <subsites>  (785) 


>  <placement_batch>  (785) 
CpKRS_FrAncestor_bulkdock_iter2

>  <name>  (785) 
ZJTNYBYLBTVLRD-UHFFFAOYSA-N-P54

$$$$
SRSXLGNVWSONIS-UHFFFAOYSA-N-P54
     RDKit          3D

 10 10  0  0  0  0  0  0  0  0999 V2000
    5.1884  -36.3256    9.6496 O   0  0  0  0  0  0  0  0  0  0  0  0
    6.6232  -36.1896    9.7836 S   0  0  0  0  0  0  0  0  0  0  0  0
    7.2269  -34.9133   10.1074 O   0  0  0  0  0  0  0  0  0  0  0  0
    7.2442  -36.7131    8.3928 O   0  0  0  0  0  0  0  0  0  0  0  0
    7.1865  -37.3533   10.9946 C   0  0  0  0  0  0  0  0  0  0  0  0
    8.5436  -37.3630   11.3325 C   0  0  0  0  0  0  0  0  0  0  0  0
    8.9825  -38.1825   12.3704 C   0  0  0  0  0  0  0  0  0  0  0  0
    8.0710  -38.9837   13.0597 C   0  0  0  0  0  0  0  0  0  0  0  0
    6.7196  -38.9781   12.7102 C   0  0  0  0  0  0  0  0  0  0  0  0
    6.2695  -38.1597   11.6751 C   0  0  0  0  0  0  0  0  0  0  0  0
  1  2  2  0
  2  3  2  0
  2  4  1  0
  2  5  1  0
  5  6  2  0
  6  7  1  0
  7  8  2  0
  8  9  1  0
  9 10  2  0
 10  5  1  0
M  END
>  <inchikey>  (786) 
SRSXLGNVWSONIS-UHFFFAOYSA-N

>  <tags>  (786) 
fragmenstein_placed,CpKRS_FrAncestor_bulkdock_iter2

>  <ref_pdb>  (786) 
x0485c

>  <energy_score>  (786) 
-20.130432

>  <distance_score>  (786) 
0.467681

>  <HIPPO Pose ID>  (786) 
56570

>  <ref_mols>  (786) 
x0639c

>  <smiles>  (786) 
O=S(=O)(O)c1ccccc1

>  <HIPPO Compound ID>  (786) 
34489

>  <alias>  (786) 
SRSXLGNVWSONIS-UHFFFAOYSA-N-P54

>  <subsites>  (786) 


>  <placement_batch>  (786) 
CpKRS_FrAncestor_bulkdock_iter2

>  <name>  (786) 
SRSXLGNVWSONIS-UHFFFAOYSA-N-P54

$$$$
ZGZXYZZHXXTTJN-UHFFFAOYSA-N-P54
     RDKit          3D

 12 12  0  0  0  0  0  0  0  0999 V2000
    5.2237  -36.5189    9.7193 O   0  0  0  0  0  0  0  0  0  0  0  0
    6.6362  -36.2218    9.8207 S   0  0  0  0  0  0  0  0  0  0  0  0
    7.0790  -34.8767   10.1254 O   0  0  0  0  0  0  0  0  0  0  0  0
    7.3272  -36.6421    8.4284 O   0  0  0  0  0  0  0  0  0  0  0  0
    7.3388  -37.3023   11.0388 C   0  0  0  0  0  0  0  0  0  0  0  0
    6.4706  -38.1455   11.7524 C   0  0  0  0  0  0  0  0  0  0  0  0
    6.9592  -38.9218   12.7997 C   0  0  0  0  0  0  0  0  0  0  0  0
    8.3094  -38.8581   13.1360 C   0  0  0  0  0  0  0  0  0  0  0  0
    9.1792  -38.0284   12.4205 C   0  0  0  0  0  0  0  0  0  0  0  0
   10.8417  -38.0213   12.9068 Cl  0  0  0  0  0  0  0  0  0  0  0  0
    8.7023  -37.2409   11.3591 C   0  0  0  0  0  0  0  0  0  0  0  0
    9.8027  -36.2253   10.4811 Cl  0  0  0  0  0  0  0  0  0  0  0  0
  1  2  2  0
  2  3  2  0
  2  4  1  0
  2  5  1  0
  5  6  2  0
  6  7  1  0
  7  8  2  0
  8  9  1  0
  9 10  1  0
  9 11  2  0
 11 12  1  0
 11  5  1  0
M  END
>  <inchikey>  (787) 
ZGZXYZZHXXTTJN-UHFFFAOYSA-N

>  <tags>  (787) 
fragmenstein_placed,CpKRS_FrAncestor_bulkdock_iter2

>  <ref_pdb>  (787) 
x0485c

>  <energy_score>  (787) 
-12.264471

>  <distance_score>  (787) 
0.222817

>  <HIPPO Pose ID>  (787) 
56573

>  <ref_mols>  (787) 
x0639c

>  <smiles>  (787) 
O=S(=O)(O)c1cccc(Cl)c1Cl

>  <HIPPO Compound ID>  (787) 
34490

>  <alias>  (787) 
ZGZXYZZHXXTTJN-UHFFFAOYSA-N-P54

>  <subsites>  (787) 


>  <placement_batch>  (787) 
CpKRS_FrAncestor_bulkdock_iter2

>  <name>  (787) 
ZGZXYZZHXXTTJN-UHFFFAOYSA-N-P54

$$$$
HCGSWTIHASKVTN-WDSKDSINSA-N-P13
     RDKit          3D

 18 19  0  0  0  0  0  0  0  0999 V2000
    5.5283  -13.9011   24.3276 O   0  0  0  0  0  0  0  0  0  0  0  0
    4.5526  -13.3263   24.5907 C   0  0  0  0  0  0  0  0  0  0  0  0
    4.1458  -11.8770   24.3049 N   0  0  0  0  0  0  0  0  0  0  0  0
    4.8834  -10.8064   23.7229 C   0  0  1  0  0  0  0  0  0  0  0  0
    5.2049  -11.0219   22.2521 C   0  0  0  0  0  0  0  0  0  0  0  0
    5.5500   -9.6249   21.7398 C   0  0  0  0  0  0  0  0  0  0  0  0
    4.9998   -8.6446   22.7789 C   0  0  2  0  0  0  0  0  0  0  0  0
    6.2925   -7.8630   23.7214 Cl  0  0  0  0  0  0  0  0  0  0  0  0
    4.1406   -9.4828   23.7128 C   0  0  0  0  0  0  0  0  0  0  0  0
    3.4901  -13.9436   25.4096 C   0  0  0  0  0  0  0  0  0  0  0  0
    2.2905  -13.3411   25.5921 N   0  0  0  0  0  0  0  0  0  0  0  0
    1.6409  -14.1623   26.4500 N   0  0  0  0  0  0  0  0  0  0  0  0
    0.3581  -13.7891   27.0333 C   0  0  0  0  0  0  0  0  0  0  0  0
   -0.6230  -14.6936   26.7598 F   0  0  0  0  0  0  0  0  0  0  0  0
   -0.1002  -12.5851   26.6011 F   0  0  0  0  0  0  0  0  0  0  0  0
    2.3681  -15.2626   26.8018 C   0  0  0  0  0  0  0  0  0  0  0  0
    3.5693  -15.1435   26.1526 C   0  0  0  0  0  0  0  0  0  0  0  0
    4.8896  -16.1859   26.2774 Cl  0  0  0  0  0  0  0  0  0  0  0  0
  1  2  2  0
  2  3  1  0
  4  3  1  6
  4  5  1  0
  5  6  1  0
  6  7  1  0
  7  8  1  1
  7  9  1  0
  2 10  1  0
 10 11  2  0
 11 12  1  0
 12 13  1  0
 13 14  1  0
 13 15  1  0
 12 16  1  0
 16 17  2  0
 17 18  1  0
  9  4  1  0
 17 10  1  0
M  END
>  <inchikey>  (788) 
HCGSWTIHASKVTN-UHFFFAOYSA-N

>  <tags>  (788) 
fragmenstein_placed,CpKRS_FrAncestor_bulkdock_iter2

>  <ref_pdb>  (788) 
x0485c

>  <energy_score>  (788) 
-0.805896

>  <distance_score>  (788) 
0.450445

>  <HIPPO Pose ID>  (788) 
56576

>  <ref_mols>  (788) 
x0421c

>  <smiles>  (788) 
O=C(N[C@H]1CC[C@H](Cl)C1)c1nn(C(F)F)cc1Cl

>  <HIPPO Compound ID>  (788) 
34491

>  <alias>  (788) 
HCGSWTIHASKVTN-WDSKDSINSA-N-P13

>  <subsites>  (788) 


>  <placement_batch>  (788) 
CpKRS_FrAncestor_bulkdock_iter2

>  <name>  (788) 
HCGSWTIHASKVTN-WDSKDSINSA-N-P13

$$$$
XUWYAQCYSXFQKQ-SCSAIBSYSA-N-P49
     RDKit          3D

 16 16  0  0  0  0  0  0  0  0999 V2000
    5.3251  -13.4283   24.4621 O   0  0  0  0  0  0  0  0  0  0  0  0
    4.2344  -13.1048   24.7000 C   0  0  0  0  0  0  0  0  0  0  0  0
    3.4212  -11.9034   24.1978 N   0  0  0  0  0  0  0  0  0  0  0  0
    3.7521  -10.8784   23.2048 C   0  0  2  0  0  0  0  0  0  0  0  0
    4.7500  -11.3906   22.1774 C   0  0  0  0  0  0  0  0  0  0  0  0
    4.7886  -10.5254   21.1279 F   0  0  0  0  0  0  0  0  0  0  0  0
    4.3158   -9.6024   23.8353 C   0  0  0  0  0  0  0  0  0  0  0  0
    5.3191   -9.8472   24.7020 F   0  0  0  0  0  0  0  0  0  0  0  0
    3.3373   -8.9599   24.5227 F   0  0  0  0  0  0  0  0  0  0  0  0
    4.7699   -8.7219   22.9172 F   0  0  0  0  0  0  0  0  0  0  0  0
    3.4756  -13.8839   25.6725 C   0  0  0  0  0  0  0  0  0  0  0  0
    3.9298  -14.9976   26.3617 C   0  0  0  0  0  0  0  0  0  0  0  0
    3.0891  -15.4897   27.3355 N   0  0  0  0  0  0  0  0  0  0  0  0
    2.0282  -14.7320   27.3689 C   0  0  0  0  0  0  0  0  0  0  0  0
    0.8271  -14.9259   28.5617 Cl  0  0  0  0  0  0  0  0  0  0  0  0
    1.8868  -13.5055   26.2053 S   0  0  0  0  0  0  0  0  0  0  0  0
  1  2  2  0
  2  3  1  0
  3  4  1  0
  4  5  1  6
  5  6  1  0
  4  7  1  0
  7  8  1  0
  7  9  1  0
  7 10  1  0
  2 11  1  0
 11 12  2  0
 12 13  1  0
 13 14  2  0
 14 15  1  0
 14 16  1  0
 16 11  1  0
M  END
>  <inchikey>  (789) 
XUWYAQCYSXFQKQ-UHFFFAOYSA-N

>  <tags>  (789) 
fragmenstein_placed,CpKRS_FrAncestor_bulkdock_iter2

>  <ref_pdb>  (789) 
x0485c

>  <energy_score>  (789) 
-50.649273

>  <distance_score>  (789) 
0.588274

>  <HIPPO Pose ID>  (789) 
56585

>  <ref_mols>  (789) 
x0504b

>  <smiles>  (789) 
O=C(N[C@H](CF)C(F)(F)F)c1cnc(Cl)s1

>  <HIPPO Compound ID>  (789) 
34495

>  <alias>  (789) 
XUWYAQCYSXFQKQ-SCSAIBSYSA-N-P49

>  <subsites>  (789) 


>  <placement_batch>  (789) 
CpKRS_FrAncestor_bulkdock_iter2

>  <name>  (789) 
XUWYAQCYSXFQKQ-SCSAIBSYSA-N-P49

$$$$
LYSJLXPJDWAXKQ-RXMQYKEDSA-N-P48
     RDKit          3D

 15 15  0  0  0  0  0  0  0  0999 V2000
    5.0453  -13.4983   25.0895 O   0  0  0  0  0  0  0  0  0  0  0  0
    3.9240  -13.1866   25.0923 C   0  0  0  0  0  0  0  0  0  0  0  0
    3.1538  -12.2285   24.1681 N   0  0  0  0  0  0  0  0  0  0  0  0
    3.5863  -11.5137   22.9691 C   0  0  2  0  0  0  0  0  0  0  0  0
    4.6622  -12.2777   22.2202 C   0  0  0  0  0  0  0  0  0  0  0  0
    4.7851  -11.7510   20.9729 F   0  0  0  0  0  0  0  0  0  0  0  0
    4.0832  -10.0858   23.1998 C   0  0  0  0  0  0  0  0  0  0  0  0
    3.0590   -9.2985   23.6385 F   0  0  0  0  0  0  0  0  0  0  0  0
    5.0653  -10.0020   24.1176 F   0  0  0  0  0  0  0  0  0  0  0  0
    4.5338   -9.5019   22.0658 F   0  0  0  0  0  0  0  0  0  0  0  0
    3.0096  -13.7950   26.0624 C   0  0  0  0  0  0  0  0  0  0  0  0
    3.3065  -14.7846   26.9826 C   0  0  0  0  0  0  0  0  0  0  0  0
    2.2743  -15.1660   27.8214 N   0  0  0  0  0  0  0  0  0  0  0  0
    1.2018  -14.4670   27.5296 C   0  0  0  0  0  0  0  0  0  0  0  0
    1.3554  -13.3617   26.2314 S   0  0  0  0  0  0  0  0  0  0  0  0
  1  2  2  0
  2  3  1  0
  3  4  1  0
  4  5  1  1
  5  6  1  0
  4  7  1  0
  7  8  1  0
  7  9  1  0
  7 10  1  0
  2 11  1  0
 11 12  2  0
 12 13  1  0
 13 14  2  0
 14 15  1  0
 15 11  1  0
M  END
>  <inchikey>  (790) 
LYSJLXPJDWAXKQ-UHFFFAOYSA-N

>  <tags>  (790) 
fragmenstein_placed,CpKRS_FrAncestor_bulkdock_iter2

>  <ref_pdb>  (790) 
x0485c

>  <energy_score>  (790) 
-5.943427

>  <distance_score>  (790) 
0.474251

>  <HIPPO Pose ID>  (790) 
56587

>  <ref_mols>  (790) 
x0504a

>  <smiles>  (790) 
O=C(N[C@H](CF)C(F)(F)F)c1cncs1

>  <HIPPO Compound ID>  (790) 
34496

>  <alias>  (790) 
LYSJLXPJDWAXKQ-RXMQYKEDSA-N-P48

>  <subsites>  (790) 


>  <placement_batch>  (790) 
CpKRS_FrAncestor_bulkdock_iter2

>  <name>  (790) 
LYSJLXPJDWAXKQ-RXMQYKEDSA-N-P48

$$$$
XOIBNHZWRYHFLE-GSVOUGTGSA-N-P49
     RDKit          3D

 16 16  0  0  0  0  0  0  0  0999 V2000
    5.1057  -13.4097   24.6437 O   0  0  0  0  0  0  0  0  0  0  0  0
    4.0111  -13.0515   24.7994 C   0  0  0  0  0  0  0  0  0  0  0  0
    3.2377  -11.9022   24.1401 N   0  0  0  0  0  0  0  0  0  0  0  0
    3.6832  -10.8721   23.2021 C   0  0  2  0  0  0  0  0  0  0  0  0
    4.6965  -11.4257   22.2118 C   0  0  0  0  0  0  0  0  0  0  0  0
    4.8219  -10.5557   21.1725 F   0  0  0  0  0  0  0  0  0  0  0  0
    4.2861   -9.6384   23.8757 C   0  0  0  0  0  0  0  0  0  0  0  0
    5.2733   -9.9387   24.7411 F   0  0  0  0  0  0  0  0  0  0  0  0
    3.3258   -8.9775   24.5707 F   0  0  0  0  0  0  0  0  0  0  0  0
    4.7785   -8.7510   22.9822 F   0  0  0  0  0  0  0  0  0  0  0  0
    3.1033  -13.7180   25.7538 C   0  0  0  0  0  0  0  0  0  0  0  0
    1.8145  -13.1966   25.9952 N   0  0  0  0  0  0  0  0  0  0  0  0
    1.2298  -13.9166   26.9273 C   0  0  0  0  0  0  0  0  0  0  0  0
    2.1010  -15.2635   27.5207 S   0  0  0  0  0  0  0  0  0  0  0  0
    3.3872  -14.8510   26.4879 C   0  0  0  0  0  0  0  0  0  0  0  0
    4.7866  -15.8385   26.4869 Cl  0  0  0  0  0  0  0  0  0  0  0  0
  1  2  2  0
  2  3  1  0
  3  4  1  0
  4  5  1  6
  5  6  1  0
  4  7  1  0
  7  8  1  0
  7  9  1  0
  7 10  1  0
  2 11  1  0
 11 12  1  0
 12 13  2  0
 13 14  1  0
 14 15  1  0
 15 16  1  0
 15 11  2  0
M  END
>  <inchikey>  (791) 
XOIBNHZWRYHFLE-UHFFFAOYSA-N

>  <tags>  (791) 
fragmenstein_placed,CpKRS_FrAncestor_bulkdock_iter2

>  <ref_pdb>  (791) 
x0485c

>  <energy_score>  (791) 
-50.827025

>  <distance_score>  (791) 
0.412735

>  <HIPPO Pose ID>  (791) 
56591

>  <ref_mols>  (791) 
x0504b

>  <smiles>  (791) 
O=C(N[C@H](CF)C(F)(F)F)c1ncsc1Cl

>  <HIPPO Compound ID>  (791) 
34497

>  <alias>  (791) 
XOIBNHZWRYHFLE-GSVOUGTGSA-N-P49

>  <subsites>  (791) 


>  <placement_batch>  (791) 
CpKRS_FrAncestor_bulkdock_iter2

>  <name>  (791) 
XOIBNHZWRYHFLE-GSVOUGTGSA-N-P49

$$$$
YBEHYTSAGJDKOE-GSVOUGTGSA-N-P49
     RDKit          3D

 16 16  0  0  0  0  0  0  0  0999 V2000
    5.1168  -13.3317   24.6789 O   0  0  0  0  0  0  0  0  0  0  0  0
    4.0106  -12.9846   24.7691 C   0  0  0  0  0  0  0  0  0  0  0  0
    3.2576  -11.8573   24.0418 N   0  0  0  0  0  0  0  0  0  0  0  0
    3.7404  -10.8420   23.1045 C   0  0  2  0  0  0  0  0  0  0  0  0
    4.8030  -11.4031   22.1744 C   0  0  0  0  0  0  0  0  0  0  0  0
    4.9406  -10.5657   21.1100 F   0  0  0  0  0  0  0  0  0  0  0  0
    4.2988   -9.5923   23.7878 C   0  0  0  0  0  0  0  0  0  0  0  0
    5.2006   -9.8758   24.7474 F   0  0  0  0  0  0  0  0  0  0  0  0
    3.2839   -8.9061   24.3755 F   0  0  0  0  0  0  0  0  0  0  0  0
    4.8750   -8.7358   22.9170 F   0  0  0  0  0  0  0  0  0  0  0  0
    3.1152  -13.6712   25.7104 C   0  0  0  0  0  0  0  0  0  0  0  0
    1.5261  -13.0993   26.0707 S   0  0  0  0  0  0  0  0  0  0  0  0
    1.3496  -14.3377   27.2284 C   0  0  0  0  0  0  0  0  0  0  0  0
    2.3416  -15.1826   27.3297 N   0  0  0  0  0  0  0  0  0  0  0  0
    3.3632  -14.8085   26.4687 C   0  0  0  0  0  0  0  0  0  0  0  0
    4.7776  -15.7747   26.4318 Cl  0  0  0  0  0  0  0  0  0  0  0  0
  1  2  2  0
  2  3  1  0
  3  4  1  0
  4  5  1  1
  5  6  1  0
  4  7  1  0
  7  8  1  0
  7  9  1  0
  7 10  1  0
  2 11  1  0
 11 12  1  0
 12 13  1  0
 13 14  2  0
 14 15  1  0
 15 16  1  0
 15 11  2  0
M  END
>  <inchikey>  (792) 
YBEHYTSAGJDKOE-UHFFFAOYSA-N

>  <tags>  (792) 
fragmenstein_placed,CpKRS_FrAncestor_bulkdock_iter2

>  <ref_pdb>  (792) 
x0485c

>  <energy_score>  (792) 
-19.853678

>  <distance_score>  (792) 
0.35643

>  <HIPPO Pose ID>  (792) 
56594

>  <ref_mols>  (792) 
x0504b

>  <smiles>  (792) 
O=C(N[C@H](CF)C(F)(F)F)c1scnc1Cl

>  <HIPPO Compound ID>  (792) 
34498

>  <alias>  (792) 
YBEHYTSAGJDKOE-GSVOUGTGSA-N-P49

>  <subsites>  (792) 


>  <placement_batch>  (792) 
CpKRS_FrAncestor_bulkdock_iter2

>  <name>  (792) 
YBEHYTSAGJDKOE-GSVOUGTGSA-N-P49

$$$$
KGJGWDQUGUEMIW-UHFFFAOYSA-N-P27
     RDKit          3D

 14 14  0  0  0  0  0  0  0  0999 V2000
   20.0861   23.1266   25.2564 O   0  0  0  0  0  0  0  0  0  0  0  0
   19.7489   22.5229   26.2644 C   0  0  0  0  0  0  0  0  0  0  0  0
   20.0717   21.2275   26.4456 O   0  0  0  0  0  0  0  0  0  0  0  0
   18.9013   23.0635   27.3898 C   0  0  0  0  0  0  0  0  0  0  0  0
   17.4658   23.2567   26.9691 C   0  0  0  0  0  0  0  0  0  0  0  0
   16.7113   22.1566   26.5323 C   0  0  0  0  0  0  0  0  0  0  0  0
   15.3887   22.3198   26.1264 C   0  0  0  0  0  0  0  0  0  0  0  0
   14.8147   23.5908   26.1689 C   0  0  0  0  0  0  0  0  0  0  0  0
   13.1498   23.7967   25.6364 S   0  0  0  0  0  0  0  0  0  0  0  0
   12.3354   23.9854   26.8084 O   0  0  0  0  0  0  0  0  0  0  0  0
   12.8691   22.7790   24.6470 O   0  0  0  0  0  0  0  0  0  0  0  0
   13.1376   25.1703   24.7935 O   0  0  0  0  0  0  0  0  0  0  0  0
   15.5463   24.6979   26.5987 C   0  0  0  0  0  0  0  0  0  0  0  0
   16.8714   24.5257   27.0015 C   0  0  0  0  0  0  0  0  0  0  0  0
  1  2  2  0
  2  3  1  0
  2  4  1  0
  4  5  1  0
  5  6  2  0
  6  7  1  0
  7  8  2  0
  8  9  1  0
  9 10  2  0
  9 11  2  0
  9 12  1  0
  8 13  1  0
 13 14  2  0
 14  5  1  0
M  END
>  <inchikey>  (793) 
KGJGWDQUGUEMIW-UHFFFAOYSA-N

>  <tags>  (793) 
fragmenstein_placed,CpKRS_FrAncestor_bulkdock_iter2

>  <ref_pdb>  (793) 
x0485c

>  <energy_score>  (793) 
-31.828228

>  <distance_score>  (793) 
0.728688

>  <HIPPO Pose ID>  (793) 
56602

>  <ref_mols>  (793) 
x0483a

>  <smiles>  (793) 
O=C(O)Cc1ccc(S(=O)(=O)O)cc1

>  <HIPPO Compound ID>  (793) 
34500

>  <alias>  (793) 
KGJGWDQUGUEMIW-UHFFFAOYSA-N-P27

>  <subsites>  (793) 


>  <placement_batch>  (793) 
CpKRS_FrAncestor_bulkdock_iter2

>  <name>  (793) 
KGJGWDQUGUEMIW-UHFFFAOYSA-N-P27

$$$$
XTJCQTJBNFESRV-UHFFFAOYSA-N-P32
     RDKit          3D

 18 18  0  0  0  0  0  0  0  0999 V2000
    5.4168  -23.6160   21.5200 O   0  0  0  0  0  0  0  0  0  0  0  0
    5.0869  -23.0196   20.2871 N   0  0  0  0  0  0  0  0  0  0  0  0
    5.7631  -21.8553   19.8813 O   0  0  0  0  0  0  0  0  0  0  0  0
    4.2052  -23.7392   19.4124 C   0  0  0  0  0  0  0  0  0  0  0  0
    4.1948  -23.4685   18.0504 C   0  0  0  0  0  0  0  0  0  0  0  0
    3.3803  -24.2307   17.2172 C   0  0  0  0  0  0  0  0  0  0  0  0
    2.5628  -25.2509   17.7331 C   0  0  0  0  0  0  0  0  0  0  0  0
    1.6625  -26.0542   16.8296 C   0  0  0  0  0  0  0  0  0  0  0  0
    0.8448  -25.2212   15.9502 N   0  0  0  0  0  0  0  0  0  0  0  0
    1.2556  -25.1029   14.3373 S   0  0  0  0  0  0  0  0  0  0  0  0
    2.6464  -25.4621   14.1736 O   0  0  0  0  0  0  0  0  0  0  0  0
    0.7132  -23.8459   13.8797 O   0  0  0  0  0  0  0  0  0  0  0  0
    0.2593  -26.3902   13.6156 C   0  0  0  0  0  0  0  0  0  0  0  0
    0.5991  -26.6888   12.1546 C   0  0  0  0  0  0  0  0  0  0  0  0
    0.3967  -25.5248   11.1835 C   0  0  0  0  0  0  0  0  0  0  0  0
    1.9050  -24.6176   10.8958 Cl  0  0  0  0  0  0  0  0  0  0  0  0
    2.6015  -25.5206   19.1068 C   0  0  0  0  0  0  0  0  0  0  0  0
    3.4175  -24.7662   19.9463 C   0  0  0  0  0  0  0  0  0  0  0  0
  1  2  2  0
  2  3  1  0
  2  4  1  0
  4  5  2  0
  5  6  1  0
  6  7  2  0
  7  8  1  0
  8  9  1  0
  9 10  1  0
 10 11  2  0
 10 12  2  0
 10 13  1  0
 13 14  1  0
 14 15  1  0
 15 16  1  0
  7 17  1  0
 17 18  2  0
 18  4  1  0
M  CHG  1   2   1
M  END
>  <inchikey>  (794) 
XTJCQTJBNFESRV-UHFFFAOYSA-N

>  <tags>  (794) 
fragmenstein_placed,CpKRS_FrAncestor_bulkdock_iter2

>  <ref_pdb>  (794) 
x0485c

>  <energy_score>  (794) 
-51.787592

>  <distance_score>  (794) 
0.436983

>  <HIPPO Pose ID>  (794) 
56603

>  <ref_mols>  (794) 
x0487a

>  <smiles>  (794) 
O=[N+](O)c1ccc(CNS(=O)(=O)CCCCl)cc1

>  <HIPPO Compound ID>  (794) 
34501

>  <alias>  (794) 
XTJCQTJBNFESRV-UHFFFAOYSA-N-P32

>  <subsites>  (794) 


>  <placement_batch>  (794) 
CpKRS_FrAncestor_bulkdock_iter2

>  <name>  (794) 
XTJCQTJBNFESRV-UHFFFAOYSA-N-P32

$$$$
IAYAIELRUAKZRB-UHFFFAOYSA-N-P54
     RDKit          3D

 13 13  0  0  0  0  0  0  0  0999 V2000
   10.5767  -35.7037   11.5548 O   0  0  0  0  0  0  0  0  0  0  0  0
    9.6137  -36.3906   10.7812 N   0  0  0  0  0  0  0  0  0  0  0  0
    9.7146  -36.3268    9.3797 O   0  0  0  0  0  0  0  0  0  0  0  0
    8.6664  -37.2731   11.4038 C   0  0  0  0  0  0  0  0  0  0  0  0
    9.1241  -38.0656   12.4623 C   0  0  0  0  0  0  0  0  0  0  0  0
    8.2536  -38.9519   13.0956 C   0  0  0  0  0  0  0  0  0  0  0  0
    6.9294  -39.0566   12.6746 C   0  0  0  0  0  0  0  0  0  0  0  0
    6.4626  -38.2594   11.6291 C   0  0  0  0  0  0  0  0  0  0  0  0
    7.3300  -37.3603   10.9887 C   0  0  0  0  0  0  0  0  0  0  0  0
    6.6179  -36.1766    9.8751 S   0  0  0  0  0  0  0  0  0  0  0  0
    7.3289  -34.9240   10.0406 O   0  0  0  0  0  0  0  0  0  0  0  0
    5.1759  -36.2353   10.0098 O   0  0  0  0  0  0  0  0  0  0  0  0
    7.0309  -36.9228    8.0299 Cl  0  0  0  0  0  0  0  0  0  0  0  0
  1  2  2  0
  2  3  1  0
  2  4  1  0
  4  5  2  0
  5  6  1  0
  6  7  2  0
  7  8  1  0
  8  9  2  0
  9 10  1  0
 10 11  2  0
 10 12  2  0
 10 13  1  0
  9  4  1  0
M  CHG  1   2   1
M  END
>  <inchikey>  (795) 
IAYAIELRUAKZRB-UHFFFAOYSA-N

>  <tags>  (795) 
fragmenstein_placed,CpKRS_FrAncestor_bulkdock_iter2

>  <ref_pdb>  (795) 
x0485c

>  <energy_score>  (795) 
-46.891907

>  <distance_score>  (795) 
0.268875

>  <HIPPO Pose ID>  (795) 
56607

>  <ref_mols>  (795) 
x0639c

>  <smiles>  (795) 
O=[N+](O)c1ccccc1S(=O)(=O)Cl

>  <HIPPO Compound ID>  (795) 
34502

>  <alias>  (795) 
IAYAIELRUAKZRB-UHFFFAOYSA-N-P54

>  <subsites>  (795) 


>  <placement_batch>  (795) 
CpKRS_FrAncestor_bulkdock_iter2

>  <name>  (795) 
IAYAIELRUAKZRB-UHFFFAOYSA-N-P54

$$$$
JNDGRIHTSYBGRJ-UHFFFAOYSA-N-P54
     RDKit          3D

 13 13  0  0  0  0  0  0  0  0999 V2000
   10.6378  -35.7373   11.4049 O   0  0  0  0  0  0  0  0  0  0  0  0
    9.6188  -36.4036   10.6868 N   0  0  0  0  0  0  0  0  0  0  0  0
    9.6277  -36.3254    9.2808 O   0  0  0  0  0  0  0  0  0  0  0  0
    8.6809  -37.2577   11.3608 C   0  0  0  0  0  0  0  0  0  0  0  0
    9.1460  -38.0200   12.4367 C   0  0  0  0  0  0  0  0  0  0  0  0
    8.2734  -38.8757   13.1090 C   0  0  0  0  0  0  0  0  0  0  0  0
    6.9407  -38.9773   12.7110 C   0  0  0  0  0  0  0  0  0  0  0  0
    6.4668  -38.2081   11.6478 C   0  0  0  0  0  0  0  0  0  0  0  0
    7.3376  -37.3418   10.9712 C   0  0  0  0  0  0  0  0  0  0  0  0
    6.6553  -36.2034    9.7924 S   0  0  0  0  0  0  0  0  0  0  0  0
    7.2401  -34.9058   10.0797 O   0  0  0  0  0  0  0  0  0  0  0  0
    5.2155  -36.3750    9.7846 O   0  0  0  0  0  0  0  0  0  0  0  0
    7.1504  -36.6403    8.3497 F   0  0  0  0  0  0  0  0  0  0  0  0
  1  2  2  0
  2  3  1  0
  2  4  1  0
  4  5  2  0
  5  6  1  0
  6  7  2  0
  7  8  1  0
  8  9  2  0
  9 10  1  0
 10 11  2  0
 10 12  2  0
 10 13  1  0
  9  4  1  0
M  CHG  1   2   1
M  END
>  <inchikey>  (796) 
JNDGRIHTSYBGRJ-UHFFFAOYSA-N

>  <tags>  (796) 
fragmenstein_placed,CpKRS_FrAncestor_bulkdock_iter2

>  <ref_pdb>  (796) 
x0485c

>  <energy_score>  (796) 
-50.507956

>  <distance_score>  (796) 
0.21652

>  <HIPPO Pose ID>  (796) 
56610

>  <ref_mols>  (796) 
x0639c

>  <smiles>  (796) 
O=[N+](O)c1ccccc1S(=O)(=O)F

>  <HIPPO Compound ID>  (796) 
34503

>  <alias>  (796) 
JNDGRIHTSYBGRJ-UHFFFAOYSA-N-P54

>  <subsites>  (796) 


>  <placement_batch>  (796) 
CpKRS_FrAncestor_bulkdock_iter2

>  <name>  (796) 
JNDGRIHTSYBGRJ-UHFFFAOYSA-N-P54

$$$$
GAGLTCAEAYCSQG-UHFFFAOYSA-N-P54
     RDKit          3D

 19 19  0  0  0  0  0  0  0  0999 V2000
   10.5686  -35.6772   11.4798 O   0  0  0  0  0  0  0  0  0  0  0  0
    9.6165  -36.3976   10.7200 N   0  0  0  0  0  0  0  0  0  0  0  0
    9.7632  -36.4120    9.3185 O   0  0  0  0  0  0  0  0  0  0  0  0
    8.6799  -37.2723   11.3671 C   0  0  0  0  0  0  0  0  0  0  0  0
    9.1512  -38.0603   12.4226 C   0  0  0  0  0  0  0  0  0  0  0  0
    8.2835  -38.9315   13.0810 C   0  0  0  0  0  0  0  0  0  0  0  0
    6.9489  -39.0225   12.6895 C   0  0  0  0  0  0  0  0  0  0  0  0
    6.4701  -38.2281   11.6475 C   0  0  0  0  0  0  0  0  0  0  0  0
    7.3363  -37.3484   10.9804 C   0  0  0  0  0  0  0  0  0  0  0  0
    6.6312  -36.1720    9.8466 S   0  0  0  0  0  0  0  0  0  0  0  0
    5.1912  -36.2758    9.9493 O   0  0  0  0  0  0  0  0  0  0  0  0
    7.3023  -34.9155   10.1065 O   0  0  0  0  0  0  0  0  0  0  0  0
    7.0729  -36.7476    8.3217 N   0  0  0  0  0  0  0  0  0  0  0  0
    6.6083  -38.1080    7.9312 C   0  0  0  0  0  0  0  0  0  0  0  0
    7.8115  -39.0321    7.7619 C   0  0  0  0  0  0  0  0  0  0  0  0
    7.2841  -40.6536    7.2565 Cl  0  0  0  0  0  0  0  0  0  0  0  0
    7.0620  -35.7492    7.2069 C   0  0  0  0  0  0  0  0  0  0  0  0
    5.6720  -35.2401    6.8137 C   0  0  0  0  0  0  0  0  0  0  0  0
    5.1963  -33.7769    7.7071 Cl  0  0  0  0  0  0  0  0  0  0  0  0
  1  2  2  0
  2  3  1  0
  2  4  1  0
  4  5  2  0
  5  6  1  0
  6  7  2  0
  7  8  1  0
  8  9  2  0
  9 10  1  0
 10 11  2  0
 10 12  2  0
 10 13  1  0
 13 14  1  0
 14 15  1  0
 15 16  1  0
 13 17  1  0
 17 18  1  0
 18 19  1  0
  9  4  1  0
M  CHG  1   2   1
M  END
>  <inchikey>  (797) 
GAGLTCAEAYCSQG-UHFFFAOYSA-N

>  <tags>  (797) 
fragmenstein_placed,CpKRS_FrAncestor_bulkdock_iter2

>  <ref_pdb>  (797) 
x0485c

>  <energy_score>  (797) 
-66.332837

>  <distance_score>  (797) 
0.219461

>  <HIPPO Pose ID>  (797) 
56613

>  <ref_mols>  (797) 
x0639c

>  <smiles>  (797) 
O=[N+](O)c1ccccc1S(=O)(=O)N(CCCl)CCCl

>  <HIPPO Compound ID>  (797) 
34504

>  <alias>  (797) 
GAGLTCAEAYCSQG-UHFFFAOYSA-N-P54

>  <subsites>  (797) 


>  <placement_batch>  (797) 
CpKRS_FrAncestor_bulkdock_iter2

>  <name>  (797) 
GAGLTCAEAYCSQG-UHFFFAOYSA-N-P54

$$$$
OYYBZKOOARPRGX-UHFFFAOYSA-N-P54
     RDKit          3D

 12 12  0  0  0  0  0  0  0  0999 V2000
    6.3466  -38.1754    8.3122 O   0  0  0  0  0  0  0  0  0  0  0  0
    6.7923  -36.8035    8.2237 S   0  0  0  0  0  0  0  0  0  0  0  0
    7.9149  -36.4360    7.3835 O   0  0  0  0  0  0  0  0  0  0  0  0
    5.4089  -35.7742    7.7473 C   0  0  0  0  0  0  0  0  0  0  0  0
    3.9337  -35.7466    9.0131 Br  0  0  0  0  0  0  0  0  0  0  0  0
    7.1818  -36.1805    9.7584 N   0  0  0  0  0  0  0  0  0  0  0  0
    7.4212  -37.1240   10.8151 C   0  0  0  0  0  0  0  0  0  0  0  0
    8.6908  -37.1696   11.3969 C   0  0  0  0  0  0  0  0  0  0  0  0
    8.9280  -38.0019   12.4921 C   0  0  0  0  0  0  0  0  0  0  0  0
    7.9002  -38.7888   13.0077 C   0  0  0  0  0  0  0  0  0  0  0  0
    6.6351  -38.7503   12.4251 C   0  0  0  0  0  0  0  0  0  0  0  0
    6.3935  -37.9161   11.3308 C   0  0  0  0  0  0  0  0  0  0  0  0
  1  2  2  0
  2  3  2  0
  2  4  1  0
  4  5  1  0
  2  6  1  0
  6  7  1  0
  7  8  2  0
  8  9  1  0
  9 10  2  0
 10 11  1  0
 11 12  2  0
 12  7  1  0
M  END
>  <inchikey>  (798) 
OYYBZKOOARPRGX-UHFFFAOYSA-N

>  <tags>  (798) 
fragmenstein_placed,CpKRS_FrAncestor_bulkdock_iter2

>  <ref_pdb>  (798) 
x0485c

>  <energy_score>  (798) 
-12.44672

>  <distance_score>  (798) 
0.550746

>  <HIPPO Pose ID>  (798) 
56631

>  <ref_mols>  (798) 
x0639c

>  <smiles>  (798) 
O=S(=O)(CBr)Nc1ccccc1

>  <HIPPO Compound ID>  (798) 
34510

>  <alias>  (798) 
OYYBZKOOARPRGX-UHFFFAOYSA-N-P54

>  <subsites>  (798) 


>  <placement_batch>  (798) 
CpKRS_FrAncestor_bulkdock_iter2

>  <name>  (798) 
OYYBZKOOARPRGX-UHFFFAOYSA-N-P54

$$$$
SGDAONFFHUCRON-UHFFFAOYSA-N-P54
     RDKit          3D

 12 12  0  0  0  0  0  0  0  0999 V2000
    7.0315  -35.9529    7.2287 O   0  0  0  0  0  0  0  0  0  0  0  0
    7.0793  -37.0629    8.1589 S   0  0  0  0  0  0  0  0  0  0  0  0
    6.0342  -38.0623    8.1912 O   0  0  0  0  0  0  0  0  0  0  0  0
    8.6809  -37.8762    8.0171 C   0  0  0  0  0  0  0  0  0  0  0  0
    8.8510  -38.5538    6.3869 Cl  0  0  0  0  0  0  0  0  0  0  0  0
    7.1676  -36.3221    9.6851 N   0  0  0  0  0  0  0  0  0  0  0  0
    7.4279  -37.1486   10.8167 C   0  0  0  0  0  0  0  0  0  0  0  0
    6.4715  -38.0562   11.2720 C   0  0  0  0  0  0  0  0  0  0  0  0
    6.7433  -38.8552   12.3834 C   0  0  0  0  0  0  0  0  0  0  0  0
    7.9723  -38.7510   13.0314 C   0  0  0  0  0  0  0  0  0  0  0  0
    8.9319  -37.8512   12.5690 C   0  0  0  0  0  0  0  0  0  0  0  0
    8.6625  -37.0479   11.4606 C   0  0  0  0  0  0  0  0  0  0  0  0
  1  2  2  0
  2  3  2  0
  2  4  1  0
  4  5  1  0
  2  6  1  0
  6  7  1  0
  7  8  2  0
  8  9  1  0
  9 10  2  0
 10 11  1  0
 11 12  2  0
 12  7  1  0
M  END
>  <inchikey>  (799) 
SGDAONFFHUCRON-UHFFFAOYSA-N

>  <tags>  (799) 
fragmenstein_placed,CpKRS_FrAncestor_bulkdock_iter2

>  <ref_pdb>  (799) 
x0485c

>  <energy_score>  (799) 
-20.600126

>  <distance_score>  (799) 
0.540697

>  <HIPPO Pose ID>  (799) 
56634

>  <ref_mols>  (799) 
x0639c

>  <smiles>  (799) 
O=S(=O)(CCl)Nc1ccccc1

>  <HIPPO Compound ID>  (799) 
34511

>  <alias>  (799) 
SGDAONFFHUCRON-UHFFFAOYSA-N-P54

>  <subsites>  (799) 


>  <placement_batch>  (799) 
CpKRS_FrAncestor_bulkdock_iter2

>  <name>  (799) 
SGDAONFFHUCRON-UHFFFAOYSA-N-P54

$$$$
CVLBPNVZAWKPFN-UHFFFAOYSA-N-P54
     RDKit          3D

 11 11  0  0  0  0  0  0  0  0999 V2000
    7.0343  -34.8890   10.1212 O   0  0  0  0  0  0  0  0  0  0  0  0
    6.5914  -36.2260    9.7706 S   0  0  0  0  0  0  0  0  0  0  0  0
    5.1823  -36.5053    9.5698 O   0  0  0  0  0  0  0  0  0  0  0  0
    7.3012  -36.6076    8.4019 F   0  0  0  0  0  0  0  0  0  0  0  0
    7.1988  -37.3337   11.0100 C   0  0  0  0  0  0  0  0  0  0  0  0
    6.2735  -38.1313   11.7028 C   0  0  0  0  0  0  0  0  0  0  0  0
    6.7022  -38.9442   12.7506 C   0  0  0  0  0  0  0  0  0  0  0  0
    8.0472  -38.9621   13.1083 C   0  0  0  0  0  0  0  0  0  0  0  0
    8.9693  -38.1785   12.4129 C   0  0  0  0  0  0  0  0  0  0  0  0
    8.5521  -37.3605   11.3579 C   0  0  0  0  0  0  0  0  0  0  0  0
    9.8935  -36.3330   10.4965 Br  0  0  0  0  0  0  0  0  0  0  0  0
  1  2  2  0
  2  3  2  0
  2  4  1  0
  2  5  1  0
  5  6  2  0
  6  7  1  0
  7  8  2  0
  8  9  1  0
  9 10  2  0
 10 11  1  0
 10  5  1  0
M  END
>  <inchikey>  (800) 
CVLBPNVZAWKPFN-UHFFFAOYSA-N

>  <tags>  (800) 
fragmenstein_placed,CpKRS_FrAncestor_bulkdock_iter2

>  <ref_pdb>  (800) 
x0485c

>  <energy_score>  (800) 
-15.829907

>  <distance_score>  (800) 
0.241618

>  <HIPPO Pose ID>  (800) 
56637

>  <ref_mols>  (800) 
x0639c

>  <smiles>  (800) 
O=S(=O)(F)c1ccccc1Br

>  <HIPPO Compound ID>  (800) 
34512

>  <alias>  (800) 
CVLBPNVZAWKPFN-UHFFFAOYSA-N-P54

>  <subsites>  (800) 


>  <placement_batch>  (800) 
CpKRS_FrAncestor_bulkdock_iter2

>  <name>  (800) 
CVLBPNVZAWKPFN-UHFFFAOYSA-N-P54

$$$$
GLHNJHLSPDWSGQ-UHFFFAOYSA-N-P54
     RDKit          3D

 12 12  0  0  0  0  0  0  0  0999 V2000
    5.1937  -36.4224    9.6238 O   0  0  0  0  0  0  0  0  0  0  0  0
    6.6177  -36.1881    9.7612 S   0  0  0  0  0  0  0  0  0  0  0  0
    7.1197  -34.8690   10.1021 O   0  0  0  0  0  0  0  0  0  0  0  0
    7.2587  -36.5804    8.3640 F   0  0  0  0  0  0  0  0  0  0  0  0
    7.2588  -37.3164   10.9831 C   0  0  0  0  0  0  0  0  0  0  0  0
    6.3335  -38.1309   11.6588 C   0  0  0  0  0  0  0  0  0  0  0  0
    6.7546  -38.9517   12.7013 C   0  0  0  0  0  0  0  0  0  0  0  0
    8.0939  -38.9641   13.0716 C   0  0  0  0  0  0  0  0  0  0  0  0
    9.0180  -38.1661   12.3948 C   0  0  0  0  0  0  0  0  0  0  0  0
    8.6236  -37.3206   11.3403 C   0  0  0  0  0  0  0  0  0  0  0  0
    9.6892  -36.5012   10.6679 C   0  0  0  0  0  0  0  0  0  0  0  0
   10.3335  -37.4580    9.1037 Br  0  0  0  0  0  0  0  0  0  0  0  0
  1  2  2  0
  2  3  2  0
  2  4  1  0
  2  5  1  0
  5  6  2  0
  6  7  1  0
  7  8  2  0
  8  9  1  0
  9 10  2  0
 10 11  1  0
 11 12  1  0
 10  5  1  0
M  END
>  <inchikey>  (801) 
GLHNJHLSPDWSGQ-UHFFFAOYSA-N

>  <tags>  (801) 
fragmenstein_placed,CpKRS_FrAncestor_bulkdock_iter2

>  <ref_pdb>  (801) 
x0485c

>  <energy_score>  (801) 
-27.341082

>  <distance_score>  (801) 
0.229353

>  <HIPPO Pose ID>  (801) 
56640

>  <ref_mols>  (801) 
x0639c

>  <smiles>  (801) 
O=S(=O)(F)c1ccccc1CBr

>  <HIPPO Compound ID>  (801) 
34513

>  <alias>  (801) 
GLHNJHLSPDWSGQ-UHFFFAOYSA-N-P54

>  <subsites>  (801) 


>  <placement_batch>  (801) 
CpKRS_FrAncestor_bulkdock_iter2

>  <name>  (801) 
GLHNJHLSPDWSGQ-UHFFFAOYSA-N-P54

$$$$
ZQQKQFYORDSUMQ-UHFFFAOYSA-N-P54
     RDKit          3D

 12 12  0  0  0  0  0  0  0  0999 V2000
    5.1952  -36.3822    9.6702 O   0  0  0  0  0  0  0  0  0  0  0  0
    6.6291  -36.1911    9.7716 S   0  0  0  0  0  0  0  0  0  0  0  0
    7.1743  -34.8842   10.0927 O   0  0  0  0  0  0  0  0  0  0  0  0
    7.2220  -36.6110    8.3617 F   0  0  0  0  0  0  0  0  0  0  0  0
    7.2598  -37.3304   10.9909 C   0  0  0  0  0  0  0  0  0  0  0  0
    6.3289  -38.1571   11.6436 C   0  0  0  0  0  0  0  0  0  0  0  0
    6.7375  -38.9847   12.6859 C   0  0  0  0  0  0  0  0  0  0  0  0
    8.0702  -38.9919   13.0795 C   0  0  0  0  0  0  0  0  0  0  0  0
    9.0005  -38.1812   12.4271 C   0  0  0  0  0  0  0  0  0  0  0  0
    8.6181  -37.3284   11.3743 C   0  0  0  0  0  0  0  0  0  0  0  0
    9.6883  -36.4839   10.7327 C   0  0  0  0  0  0  0  0  0  0  0  0
   10.1361  -37.1481    9.1512 Cl  0  0  0  0  0  0  0  0  0  0  0  0
  1  2  2  0
  2  3  2  0
  2  4  1  0
  2  5  1  0
  5  6  2  0
  6  7  1  0
  7  8  2  0
  8  9  1  0
  9 10  2  0
 10 11  1  0
 11 12  1  0
 10  5  1  0
M  END
>  <inchikey>  (802) 
ZQQKQFYORDSUMQ-UHFFFAOYSA-N

>  <tags>  (802) 
fragmenstein_placed,CpKRS_FrAncestor_bulkdock_iter2

>  <ref_pdb>  (802) 
x0485c

>  <energy_score>  (802) 
-27.700734

>  <distance_score>  (802) 
0.22979

>  <HIPPO Pose ID>  (802) 
56643

>  <ref_mols>  (802) 
x0639c

>  <smiles>  (802) 
O=S(=O)(F)c1ccccc1CCl

>  <HIPPO Compound ID>  (802) 
34514

>  <alias>  (802) 
ZQQKQFYORDSUMQ-UHFFFAOYSA-N-P54

>  <subsites>  (802) 


>  <placement_batch>  (802) 
CpKRS_FrAncestor_bulkdock_iter2

>  <name>  (802) 
ZQQKQFYORDSUMQ-UHFFFAOYSA-N-P54

$$$$
UOECQWWSUHZUMI-UHFFFAOYSA-N-P54
     RDKit          3D

 11 11  0  0  0  0  0  0  0  0999 V2000
    7.0523  -34.8832   10.1285 O   0  0  0  0  0  0  0  0  0  0  0  0
    6.6167  -36.2220    9.7760 S   0  0  0  0  0  0  0  0  0  0  0  0
    5.2086  -36.5087    9.5772 O   0  0  0  0  0  0  0  0  0  0  0  0
    7.3268  -36.5982    8.4063 F   0  0  0  0  0  0  0  0  0  0  0  0
    7.2280  -37.3269   11.0113 C   0  0  0  0  0  0  0  0  0  0  0  0
    6.3161  -38.1380   11.7049 C   0  0  0  0  0  0  0  0  0  0  0  0
    6.7626  -38.9461   12.7490 C   0  0  0  0  0  0  0  0  0  0  0  0
    8.1102  -38.9446   13.1000 C   0  0  0  0  0  0  0  0  0  0  0  0
    9.0171  -38.1455   12.4012 C   0  0  0  0  0  0  0  0  0  0  0  0
    8.5817  -37.3322   11.3512 C   0  0  0  0  0  0  0  0  0  0  0  0
    9.7705  -36.3698   10.5528 Cl  0  0  0  0  0  0  0  0  0  0  0  0
  1  2  2  0
  2  3  2  0
  2  4  1  0
  2  5  1  0
  5  6  2  0
  6  7  1  0
  7  8  2  0
  8  9  1  0
  9 10  2  0
 10 11  1  0
 10  5  1  0
M  END
>  <inchikey>  (803) 
UOECQWWSUHZUMI-UHFFFAOYSA-N

>  <tags>  (803) 
fragmenstein_placed,CpKRS_FrAncestor_bulkdock_iter2

>  <ref_pdb>  (803) 
x0485c

>  <energy_score>  (803) 
-14.432303

>  <distance_score>  (803) 
0.229338

>  <HIPPO Pose ID>  (803) 
56646

>  <ref_mols>  (803) 
x0639c

>  <smiles>  (803) 
O=S(=O)(F)c1ccccc1Cl

>  <HIPPO Compound ID>  (803) 
34515

>  <alias>  (803) 
UOECQWWSUHZUMI-UHFFFAOYSA-N-P54

>  <subsites>  (803) 


>  <placement_batch>  (803) 
CpKRS_FrAncestor_bulkdock_iter2

>  <name>  (803) 
UOECQWWSUHZUMI-UHFFFAOYSA-N-P54

$$$$
KIWRHVUUJYWRFM-UHFFFAOYSA-N-P54
     RDKit          3D

 11 11  0  0  0  0  0  0  0  0999 V2000
    7.0101  -34.9019   10.1145 O   0  0  0  0  0  0  0  0  0  0  0  0
    6.5591  -36.2374    9.7684 S   0  0  0  0  0  0  0  0  0  0  0  0
    5.1479  -36.5084    9.5716 O   0  0  0  0  0  0  0  0  0  0  0  0
    7.2604  -36.6257    8.3972 F   0  0  0  0  0  0  0  0  0  0  0  0
    7.1648  -37.3468   11.0118 C   0  0  0  0  0  0  0  0  0  0  0  0
    6.2216  -38.1119   11.7198 C   0  0  0  0  0  0  0  0  0  0  0  0
    6.6298  -38.9287   12.7724 C   0  0  0  0  0  0  0  0  0  0  0  0
    7.9743  -38.9846   13.1230 C   0  0  0  0  0  0  0  0  0  0  0  0
    8.9158  -38.2363   12.4152 C   0  0  0  0  0  0  0  0  0  0  0  0
    8.5206  -37.4139   11.3518 C   0  0  0  0  0  0  0  0  0  0  0  0
   10.0567  -36.3611   10.3984 I   0  0  0  0  0  0  0  0  0  0  0  0
  1  2  2  0
  2  3  2  0
  2  4  1  0
  2  5  1  0
  5  6  2  0
  6  7  1  0
  7  8  2  0
  8  9  1  0
  9 10  2  0
 10 11  1  0
 10  5  1  0
M  END
>  <inchikey>  (804) 
KIWRHVUUJYWRFM-UHFFFAOYSA-N

>  <tags>  (804) 
fragmenstein_placed,CpKRS_FrAncestor_bulkdock_iter2

>  <ref_pdb>  (804) 
x0485c

>  <energy_score>  (804) 
-18.179124

>  <distance_score>  (804) 
0.281246

>  <HIPPO Pose ID>  (804) 
56649

>  <ref_mols>  (804) 
x0639c

>  <smiles>  (804) 
O=S(=O)(F)c1ccccc1I

>  <HIPPO Compound ID>  (804) 
34516

>  <alias>  (804) 
KIWRHVUUJYWRFM-UHFFFAOYSA-N-P54

>  <subsites>  (804) 


>  <placement_batch>  (804) 
CpKRS_FrAncestor_bulkdock_iter2

>  <name>  (804) 
KIWRHVUUJYWRFM-UHFFFAOYSA-N-P54

$$$$
HWWFTPUAXZXWEY-UHFFFAOYSA-N-P54
     RDKit          3D

 11 11  0  0  0  0  0  0  0  0999 V2000
    8.6126  -36.4881    8.2475 O   0  0  0  0  0  0  0  0  0  0  0  0
    7.2002  -36.7895    8.2825 S   0  0  0  0  0  0  0  0  0  0  0  0
    6.6560  -38.0637    7.8707 O   0  0  0  0  0  0  0  0  0  0  0  0
    6.5133  -35.7168    7.3298 F   0  0  0  0  0  0  0  0  0  0  0  0
    6.5697  -36.4450    9.8261 N   0  0  0  0  0  0  0  0  0  0  0  0
    7.0932  -37.2629   10.8845 C   0  0  0  0  0  0  0  0  0  0  0  0
    8.4250  -37.1447   11.2860 C   0  0  0  0  0  0  0  0  0  0  0  0
    8.8951  -37.8923   12.3663 C   0  0  0  0  0  0  0  0  0  0  0  0
    8.0366  -38.7546   13.0460 C   0  0  0  0  0  0  0  0  0  0  0  0
    6.7080  -38.8769   12.6442 C   0  0  0  0  0  0  0  0  0  0  0  0
    6.2337  -38.1303   11.5644 C   0  0  0  0  0  0  0  0  0  0  0  0
  1  2  2  0
  2  3  2  0
  2  4  1  0
  2  5  1  0
  5  6  1  0
  6  7  2  0
  7  8  1  0
  8  9  2  0
  9 10  1  0
 10 11  2  0
 11  6  1  0
M  END
>  <inchikey>  (805) 
HWWFTPUAXZXWEY-UHFFFAOYSA-N

>  <tags>  (805) 
fragmenstein_placed,CpKRS_FrAncestor_bulkdock_iter2

>  <ref_pdb>  (805) 
x0485c

>  <energy_score>  (805) 
-26.224405

>  <distance_score>  (805) 
0.337336

>  <HIPPO Pose ID>  (805) 
56652

>  <ref_mols>  (805) 
x0639c

>  <smiles>  (805) 
O=S(=O)(F)Nc1ccccc1

>  <HIPPO Compound ID>  (805) 
34517

>  <alias>  (805) 
HWWFTPUAXZXWEY-UHFFFAOYSA-N-P54

>  <subsites>  (805) 


>  <placement_batch>  (805) 
CpKRS_FrAncestor_bulkdock_iter2

>  <name>  (805) 
HWWFTPUAXZXWEY-UHFFFAOYSA-N-P54

$$$$
HKSWKYUFZYFBQF-UHFFFAOYSA-N-P54
     RDKit          3D

 13 13  0  0  0  0  0  0  0  0999 V2000
    5.1701  -36.3215    9.7497 O   0  0  0  0  0  0  0  0  0  0  0  0
    6.6095  -36.2129    9.8299 S   0  0  0  0  0  0  0  0  0  0  0  0
    7.2547  -34.9448   10.1002 O   0  0  0  0  0  0  0  0  0  0  0  0
    7.2680  -36.8195    8.4189 N   0  0  0  0  0  0  0  0  0  0  0  0
    6.5969  -37.9471    7.7572 C   0  0  0  0  0  0  0  0  0  0  0  0
    7.5621  -38.6672    6.8277 C   0  0  0  0  0  0  0  0  0  0  0  0
    8.0508  -37.5229    5.3238 Br  0  0  0  0  0  0  0  0  0  0  0  0
    7.2017  -37.3597   11.0465 C   0  0  0  0  0  0  0  0  0  0  0  0
    6.3031  -38.2095   11.6983 C   0  0  0  0  0  0  0  0  0  0  0  0
    6.7632  -39.0271   12.7291 C   0  0  0  0  0  0  0  0  0  0  0  0
    8.1071  -38.9886   13.1037 C   0  0  0  0  0  0  0  0  0  0  0  0
    9.0001  -38.1408   12.4468 C   0  0  0  0  0  0  0  0  0  0  0  0
    8.5504  -37.3204   11.4144 C   0  0  0  0  0  0  0  0  0  0  0  0
  1  2  2  0
  2  3  2  0
  2  4  1  0
  4  5  1  0
  5  6  1  0
  6  7  1  0
  2  8  1  0
  8  9  2  0
  9 10  1  0
 10 11  2  0
 11 12  1  0
 12 13  2  0
 13  8  1  0
M  END
>  <inchikey>  (806) 
HKSWKYUFZYFBQF-UHFFFAOYSA-N

>  <tags>  (806) 
fragmenstein_placed,CpKRS_FrAncestor_bulkdock_iter2

>  <ref_pdb>  (806) 
x0485c

>  <energy_score>  (806) 
-28.510893

>  <distance_score>  (806) 
0.297284

>  <HIPPO Pose ID>  (806) 
56655

>  <ref_mols>  (806) 
x0639c

>  <smiles>  (806) 
O=S(=O)(NCCBr)c1ccccc1

>  <HIPPO Compound ID>  (806) 
34518

>  <alias>  (806) 
HKSWKYUFZYFBQF-UHFFFAOYSA-N-P54

>  <subsites>  (806) 


>  <placement_batch>  (806) 
CpKRS_FrAncestor_bulkdock_iter2

>  <name>  (806) 
HKSWKYUFZYFBQF-UHFFFAOYSA-N-P54

$$$$
CGCXFZGFFAKXTN-UHFFFAOYSA-N-P54
     RDKit          3D

 15 15  0  0  0  0  0  0  0  0999 V2000
    5.1704  -36.3235    9.7395 O   0  0  0  0  0  0  0  0  0  0  0  0
    6.6084  -36.2077    9.8299 S   0  0  0  0  0  0  0  0  0  0  0  0
    7.2486  -34.9378   10.0992 O   0  0  0  0  0  0  0  0  0  0  0  0
    7.2620  -36.8025    8.4178 N   0  0  0  0  0  0  0  0  0  0  0  0
    6.6253  -37.9732    7.7664 C   0  0  0  0  0  0  0  0  0  0  0  0
    7.6215  -38.8579    6.9795 C   0  0  0  0  0  0  0  0  0  0  0  0
    8.8599  -39.5455    8.0748 Cl  0  0  0  0  0  0  0  0  0  0  0  0
    6.7402  -40.2019    6.1907 Cl  0  0  0  0  0  0  0  0  0  0  0  0
    8.4440  -37.8898    5.7129 Cl  0  0  0  0  0  0  0  0  0  0  0  0
    7.2009  -37.3562   11.0421 C   0  0  0  0  0  0  0  0  0  0  0  0
    6.3016  -38.2014   11.6991 C   0  0  0  0  0  0  0  0  0  0  0  0
    6.7642  -39.0239   12.7246 C   0  0  0  0  0  0  0  0  0  0  0  0
    8.1112  -38.9953   13.0886 C   0  0  0  0  0  0  0  0  0  0  0  0
    9.0047  -38.1526   12.4260 C   0  0  0  0  0  0  0  0  0  0  0  0
    8.5525  -37.3266   11.3994 C   0  0  0  0  0  0  0  0  0  0  0  0
  1  2  2  0
  2  3  2  0
  2  4  1  0
  4  5  1  0
  5  6  1  0
  6  7  1  0
  6  8  1  0
  6  9  1  0
  2 10  1  0
 10 11  2  0
 11 12  1  0
 12 13  2  0
 13 14  1  0
 14 15  2  0
 15 10  1  0
M  END
>  <inchikey>  (807) 
CGCXFZGFFAKXTN-UHFFFAOYSA-N

>  <tags>  (807) 
fragmenstein_placed,CpKRS_FrAncestor_bulkdock_iter2

>  <ref_pdb>  (807) 
x0485c

>  <energy_score>  (807) 
-27.262096

>  <distance_score>  (807) 
0.293433

>  <HIPPO Pose ID>  (807) 
56658

>  <ref_mols>  (807) 
x0639c

>  <smiles>  (807) 
O=S(=O)(NCC(Cl)(Cl)Cl)c1ccccc1

>  <HIPPO Compound ID>  (807) 
34519

>  <alias>  (807) 
CGCXFZGFFAKXTN-UHFFFAOYSA-N-P54

>  <subsites>  (807) 


>  <placement_batch>  (807) 
CpKRS_FrAncestor_bulkdock_iter2

>  <name>  (807) 
CGCXFZGFFAKXTN-UHFFFAOYSA-N-P54

$$$$
OOORQZCICWDOMP-UHFFFAOYSA-N-P32
     RDKit          3D

 17 17  0  0  0  0  0  0  0  0999 V2000
    2.6508  -25.7640   15.0536 O   0  0  0  0  0  0  0  0  0  0  0  0
    2.2659  -25.8381   16.2064 C   0  0  0  0  0  0  0  0  0  0  0  0
    1.2128  -26.5989   16.5492 O   0  0  0  0  0  0  0  0  0  0  0  0
    2.8541  -25.1345   17.3708 C   0  0  0  0  0  0  0  0  0  0  0  0
    2.5598  -25.4948   18.6860 C   0  0  0  0  0  0  0  0  0  0  0  0
    3.1186  -24.7675   19.7352 C   0  0  0  0  0  0  0  0  0  0  0  0
    3.9646  -23.6725   19.4758 C   0  0  0  0  0  0  0  0  0  0  0  0
    4.5465  -22.8071   20.9011 S   0  0  0  0  0  0  0  0  0  0  0  0
    5.1314  -23.8713   21.6896 O   0  0  0  0  0  0  0  0  0  0  0  0
    3.3954  -22.0809   21.4036 O   0  0  0  0  0  0  0  0  0  0  0  0
    5.7215  -21.5666   20.5648 C   0  0  0  0  0  0  0  0  0  0  0  0
    7.0445  -22.1525   20.3269 C   0  0  0  0  0  0  0  0  0  0  0  0
    7.0254  -22.8353   19.1781 F   0  0  0  0  0  0  0  0  0  0  0  0
    7.4322  -22.9495   21.3176 F   0  0  0  0  0  0  0  0  0  0  0  0
    7.9624  -21.1682   20.2394 F   0  0  0  0  0  0  0  0  0  0  0  0
    4.2893  -23.3293   18.1746 C   0  0  0  0  0  0  0  0  0  0  0  0
    3.7300  -24.0687   17.1292 C   0  0  0  0  0  0  0  0  0  0  0  0
  1  2  2  0
  2  3  1  0
  2  4  1  0
  4  5  2  0
  5  6  1  0
  6  7  2  0
  7  8  1  0
  8  9  2  0
  8 10  2  0
  8 11  1  0
 11 12  1  0
 12 13  1  0
 12 14  1  0
 12 15  1  0
  7 16  1  0
 16 17  2  0
 17  4  1  0
M  END
>  <inchikey>  (808) 
OOORQZCICWDOMP-UHFFFAOYSA-N

>  <tags>  (808) 
fragmenstein_placed,CpKRS_FrAncestor_bulkdock_iter2

>  <ref_pdb>  (808) 
x0485c

>  <energy_score>  (808) 
-29.109822

>  <distance_score>  (808) 
0.864152

>  <HIPPO Pose ID>  (808) 
56662

>  <ref_mols>  (808) 
x0487a

>  <smiles>  (808) 
O=C(O)c1ccc(S(=O)(=O)CC(F)(F)F)cc1

>  <HIPPO Compound ID>  (808) 
34521

>  <alias>  (808) 
OOORQZCICWDOMP-UHFFFAOYSA-N-P32

>  <subsites>  (808) 


>  <placement_batch>  (808) 
CpKRS_FrAncestor_bulkdock_iter2

>  <name>  (808) 
OOORQZCICWDOMP-UHFFFAOYSA-N-P32

$$$$
TXAFIGZHASGILY-UHFFFAOYSA-N-P33
     RDKit          3D

 15 16  0  0  0  0  0  0  0  0999 V2000
    3.6245   -8.6285   24.8794 O   0  0  0  0  0  0  0  0  0  0  0  0
    4.2368   -9.3953   24.1538 C   0  0  0  0  0  0  0  0  0  0  0  0
    5.5129   -9.1148   23.8130 O   0  0  0  0  0  0  0  0  0  0  0  0
    3.7369  -10.6609   23.4829 C   0  0  0  0  0  0  0  0  0  0  0  0
    2.2979  -11.0211   23.8856 C   0  0  0  0  0  0  0  0  0  0  0  0
    2.2322  -11.9547   25.0929 C   0  0  0  0  0  0  0  0  0  0  0  0
    3.0340  -13.1572   24.8777 N   0  0  0  0  0  0  0  0  0  0  0  0
    3.2695  -14.0174   25.9507 C   0  0  0  0  0  0  0  0  0  0  0  0
    2.3092  -14.2556   26.9512 C   0  0  0  0  0  0  0  0  0  0  0  0
    2.4490  -15.1225   27.9978 N   0  0  0  0  0  0  0  0  0  0  0  0
    3.6226  -15.7843   27.9926 C   0  0  0  0  0  0  0  0  0  0  0  0
    4.5930  -15.5659   27.0333 C   0  0  0  0  0  0  0  0  0  0  0  0
    4.4450  -14.6808   26.0246 N   0  0  0  0  0  0  0  0  0  0  0  0
    4.0074  -13.1597   23.7857 C   0  0  0  0  0  0  0  0  0  0  0  0
    4.7181  -11.8181   23.7171 C   0  0  0  0  0  0  0  0  0  0  0  0
  1  2  2  0
  2  3  1  0
  2  4  1  0
  4  5  1  0
  5  6  1  0
  6  7  1  0
  7  8  1  0
  8  9  2  0
  9 10  1  0
 10 11  2  0
 11 12  1  0
 12 13  2  0
  7 14  1  0
 14 15  1  0
 15  4  1  0
 13  8  1  0
M  END
>  <inchikey>  (809) 
TXAFIGZHASGILY-UHFFFAOYSA-N

>  <tags>  (809) 
fragmenstein_placed,CpKRS_FrAncestor_bulkdock_iter2

>  <ref_pdb>  (809) 
x0485c

>  <energy_score>  (809) 
-31.541792

>  <distance_score>  (809) 
0.523663

>  <HIPPO Pose ID>  (809) 
56664

>  <ref_mols>  (809) 
x0489a

>  <smiles>  (809) 
O=C(O)C1CCN(c2cnccn2)CC1

>  <HIPPO Compound ID>  (809) 
34522

>  <alias>  (809) 
TXAFIGZHASGILY-UHFFFAOYSA-N-P33

>  <subsites>  (809) 


>  <placement_batch>  (809) 
CpKRS_FrAncestor_bulkdock_iter2

>  <name>  (809) 
TXAFIGZHASGILY-UHFFFAOYSA-N-P33

$$$$
GSSRHSNYXWJDJI-UHFFFAOYSA-N-P59
     RDKit          3D

 14 15  0  0  0  0  0  0  0  0999 V2000
    2.8573  -19.9100   23.1687 Br  0  0  0  0  0  0  0  0  0  0  0  0
    3.9069  -20.9092   21.9665 C   0  0  0  0  0  0  0  0  0  0  0  0
    5.0114  -20.3044   21.3970 C   0  0  0  0  0  0  0  0  0  0  0  0
    5.8425  -21.0666   20.5953 C   0  0  0  0  0  0  0  0  0  0  0  0
    5.5104  -22.3918   20.3472 C   0  0  0  0  0  0  0  0  0  0  0  0
    4.3591  -22.9246   20.9330 C   0  0  0  0  0  0  0  0  0  0  0  0
    4.0175  -24.3918   20.7730 C   0  0  0  0  0  0  0  0  0  0  0  0
    3.2128  -24.7787   19.6035 N   0  0  0  0  0  0  0  0  0  0  0  0
    3.6038  -24.1457   18.3421 C   0  0  0  0  0  0  0  0  0  0  0  0
    2.8854  -24.7122   17.1478 C   0  0  0  0  0  0  0  0  0  0  0  0
    2.2217  -25.8762   17.1691 C   0  0  0  0  0  0  0  0  0  0  0  0
    2.1684  -26.7062   18.4158 C   0  0  0  0  0  0  0  0  0  0  0  0
    3.1656  -26.2440   19.4881 C   0  0  0  0  0  0  0  0  0  0  0  0
    3.5600  -22.1922   21.7443 N   0  0  0  0  0  0  0  0  0  0  0  0
  1  2  1  0
  2  3  2  0
  3  4  1  0
  4  5  2  0
  5  6  1  0
  6  7  1  0
  7  8  1  0
  8  9  1  0
  9 10  1  0
 10 11  2  0
 11 12  1  0
 12 13  1  0
  6 14  2  0
 14  2  1  0
 13  8  1  0
M  END
>  <inchikey>  (810) 
GSSRHSNYXWJDJI-UHFFFAOYSA-N

>  <tags>  (810) 
fragmenstein_placed,CpKRS_FrAncestor_bulkdock_iter2

>  <ref_pdb>  (810) 
x0485c

>  <energy_score>  (810) 
-24.966152

>  <distance_score>  (810) 
0.438088

>  <HIPPO Pose ID>  (810) 
56665

>  <ref_mols>  (810) 
x0675a

>  <smiles>  (810) 
Brc1cccc(CN2CC=CCC2)n1

>  <HIPPO Compound ID>  (810) 
34523

>  <alias>  (810) 
GSSRHSNYXWJDJI-UHFFFAOYSA-N-P59

>  <subsites>  (810) 


>  <placement_batch>  (810) 
CpKRS_FrAncestor_bulkdock_iter2

>  <name>  (810) 
GSSRHSNYXWJDJI-UHFFFAOYSA-N-P59

$$$$
IYLFMVWZQBQAOU-UHFFFAOYSA-N-P60
     RDKit          3D

 14 15  0  0  0  0  0  0  0  0999 V2000
   -3.7264  -25.5347   27.2158 Br  0  0  0  0  0  0  0  0  0  0  0  0
   -2.6274  -25.7025   25.6840 C   0  0  0  0  0  0  0  0  0  0  0  0
   -1.9075  -24.6042   25.2497 C   0  0  0  0  0  0  0  0  0  0  0  0
   -1.1057  -24.7495   24.1241 C   0  0  0  0  0  0  0  0  0  0  0  0
   -1.0338  -25.9832   23.4883 C   0  0  0  0  0  0  0  0  0  0  0  0
   -1.8095  -27.0311   23.9753 C   0  0  0  0  0  0  0  0  0  0  0  0
   -1.8002  -28.3782   23.2771 C   0  0  0  0  0  0  0  0  0  0  0  0
   -0.7004  -29.2755   23.6869 N   0  0  0  0  0  0  0  0  0  0  0  0
   -0.8425  -29.7284   25.0878 C   0  0  0  0  0  0  0  0  0  0  0  0
   -1.7182  -30.9804   25.2379 C   0  0  0  0  0  0  0  0  0  0  0  0
   -1.2364  -32.1105   24.4962 O   0  0  0  0  0  0  0  0  0  0  0  0
   -0.2846  -31.7558   23.4832 C   0  0  0  0  0  0  0  0  0  0  0  0
   -0.6628  -30.4467   22.7752 C   0  0  0  0  0  0  0  0  0  0  0  0
   -2.6076  -26.9023   25.0675 N   0  0  0  0  0  0  0  0  0  0  0  0
  1  2  1  0
  2  3  2  0
  3  4  1  0
  4  5  2  0
  5  6  1  0
  6  7  1  0
  7  8  1  0
  8  9  1  0
  9 10  1  0
 10 11  1  0
 11 12  1  0
 12 13  1  0
  6 14  2  0
 14  2  1  0
 13  8  1  0
M  END
>  <inchikey>  (811) 
IYLFMVWZQBQAOU-UHFFFAOYSA-N

>  <tags>  (811) 
fragmenstein_placed,CpKRS_FrAncestor_bulkdock_iter2

>  <ref_pdb>  (811) 
x0485c

>  <energy_score>  (811) 
-27.334681

>  <distance_score>  (811) 
0.370816

>  <HIPPO Pose ID>  (811) 
56668

>  <ref_mols>  (811) 
x0675b

>  <smiles>  (811) 
Brc1cccc(CN2CCOCC2)n1

>  <HIPPO Compound ID>  (811) 
34524

>  <alias>  (811) 
IYLFMVWZQBQAOU-UHFFFAOYSA-N-P60

>  <subsites>  (811) 


>  <placement_batch>  (811) 
CpKRS_FrAncestor_bulkdock_iter2

>  <name>  (811) 
IYLFMVWZQBQAOU-UHFFFAOYSA-N-P60

$$$$
PWWDEQSIYFSCSF-UHFFFAOYSA-N-P60
     RDKit          3D

 14 15  0  0  0  0  0  0  0  0999 V2000
   -3.8390  -25.4736   27.2201 Br  0  0  0  0  0  0  0  0  0  0  0  0
   -2.7181  -25.6747   25.7167 C   0  0  0  0  0  0  0  0  0  0  0  0
   -1.9510  -24.6049   25.2705 C   0  0  0  0  0  0  0  0  0  0  0  0
   -1.1253  -24.7682   24.1595 C   0  0  0  0  0  0  0  0  0  0  0  0
   -1.0484  -26.0023   23.5141 C   0  0  0  0  0  0  0  0  0  0  0  0
   -1.8357  -27.0768   23.9469 C   0  0  0  0  0  0  0  0  0  0  0  0
   -1.7869  -28.4048   23.2267 C   0  0  0  0  0  0  0  0  0  0  0  0
   -0.6587  -29.2663   23.6168 N   0  0  0  0  0  0  0  0  0  0  0  0
   -0.5616  -30.4052   22.6754 C   0  0  0  0  0  0  0  0  0  0  0  0
   -0.1494  -31.7554   23.2741 C   0  0  0  0  0  0  0  0  0  0  0  0
   -1.3774  -32.3549   24.4866 S   0  0  0  0  0  0  0  0  0  0  0  0
   -1.6948  -30.7926   25.3701 C   0  0  0  0  0  0  0  0  0  0  0  0
   -0.6910  -29.6892   25.0249 C   0  0  0  0  0  0  0  0  0  0  0  0
   -2.6773  -26.8998   25.0555 C   0  0  0  0  0  0  0  0  0  0  0  0
  1  2  1  0
  2  3  2  0
  3  4  1  0
  4  5  2  0
  5  6  1  0
  6  7  1  0
  7  8  1  0
  8  9  1  0
  9 10  1  0
 10 11  1  0
 11 12  1  0
 12 13  1  0
  6 14  2  0
 14  2  1  0
 13  8  1  0
M  END
>  <inchikey>  (812) 
PWWDEQSIYFSCSF-UHFFFAOYSA-N

>  <tags>  (812) 
fragmenstein_placed,CpKRS_FrAncestor_bulkdock_iter2

>  <ref_pdb>  (812) 
x0485c

>  <energy_score>  (812) 
-14.253293

>  <distance_score>  (812) 
0.40728

>  <HIPPO Pose ID>  (812) 
56670

>  <ref_mols>  (812) 
x0675b

>  <smiles>  (812) 
Brc1cccc(CN2CCSCC2)c1

>  <HIPPO Compound ID>  (812) 
34525

>  <alias>  (812) 
PWWDEQSIYFSCSF-UHFFFAOYSA-N-P60

>  <subsites>  (812) 


>  <placement_batch>  (812) 
CpKRS_FrAncestor_bulkdock_iter2

>  <name>  (812) 
PWWDEQSIYFSCSF-UHFFFAOYSA-N-P60

$$$$
RVKQPVNJTRKCSI-UHFFFAOYSA-N-P60
     RDKit          3D

 14 15  0  0  0  0  0  0  0  0999 V2000
   -3.7106  -25.5604   27.2204 Br  0  0  0  0  0  0  0  0  0  0  0  0
   -2.6214  -25.7067   25.6791 C   0  0  0  0  0  0  0  0  0  0  0  0
   -1.9113  -24.5991   25.2519 C   0  0  0  0  0  0  0  0  0  0  0  0
   -1.1153  -24.7271   24.1201 C   0  0  0  0  0  0  0  0  0  0  0  0
   -1.0396  -25.9533   23.4706 C   0  0  0  0  0  0  0  0  0  0  0  0
   -1.8052  -27.0114   23.9512 C   0  0  0  0  0  0  0  0  0  0  0  0
   -1.7856  -28.3530   23.2426 C   0  0  0  0  0  0  0  0  0  0  0  0
   -0.6819  -29.2516   23.6440 N   0  0  0  0  0  0  0  0  0  0  0  0
   -0.6342  -30.4061   22.7189 C   0  0  0  0  0  0  0  0  0  0  0  0
   -0.1899  -31.7412   23.3266 C   0  0  0  0  0  0  0  0  0  0  0  0
   -1.3871  -32.3442   24.5680 S   0  0  0  0  0  0  0  0  0  0  0  0
   -1.7824  -30.7586   25.3809 C   0  0  0  0  0  0  0  0  0  0  0  0
   -0.7690  -29.6568   25.0589 C   0  0  0  0  0  0  0  0  0  0  0  0
   -2.5969  -26.9004   25.0504 N   0  0  0  0  0  0  0  0  0  0  0  0
  1  2  1  0
  2  3  2  0
  3  4  1  0
  4  5  2  0
  5  6  1  0
  6  7  1  0
  7  8  1  0
  8  9  1  0
  9 10  1  0
 10 11  1  0
 11 12  1  0
 12 13  1  0
  6 14  2  0
 14  2  1  0
 13  8  1  0
M  END
>  <inchikey>  (813) 
RVKQPVNJTRKCSI-UHFFFAOYSA-N

>  <tags>  (813) 
fragmenstein_placed,CpKRS_FrAncestor_bulkdock_iter2

>  <ref_pdb>  (813) 
x0485c

>  <energy_score>  (813) 
-28.099144

>  <distance_score>  (813) 
0.386669

>  <HIPPO Pose ID>  (813) 
56672

>  <ref_mols>  (813) 
x0675b

>  <smiles>  (813) 
Brc1cccc(CN2CCSCC2)n1

>  <HIPPO Compound ID>  (813) 
34526

>  <alias>  (813) 
RVKQPVNJTRKCSI-UHFFFAOYSA-N-P60

>  <subsites>  (813) 


>  <placement_batch>  (813) 
CpKRS_FrAncestor_bulkdock_iter2

>  <name>  (813) 
RVKQPVNJTRKCSI-UHFFFAOYSA-N-P60

$$$$
CIPIUPMCSFKNEG-UHFFFAOYSA-N-P60
     RDKit          3D

 14 15  0  0  0  0  0  0  0  0999 V2000
   -3.8300  -25.4603   27.2292 Br  0  0  0  0  0  0  0  0  0  0  0  0
   -2.6889  -25.6630   25.7421 C   0  0  0  0  0  0  0  0  0  0  0  0
   -1.9357  -24.5935   25.2904 C   0  0  0  0  0  0  0  0  0  0  0  0
   -1.1307  -24.8051   24.1894 C   0  0  0  0  0  0  0  0  0  0  0  0
   -1.0233  -25.9910   23.5525 N   0  0  0  0  0  0  0  0  0  0  0  0
   -1.7689  -27.0265   24.0113 C   0  0  0  0  0  0  0  0  0  0  0  0
   -1.6811  -28.3498   23.2697 C   0  0  0  0  0  0  0  0  0  0  0  0
   -0.6523  -29.2934   23.7554 N   0  0  0  0  0  0  0  0  0  0  0  0
   -0.5234  -30.4102   22.7849 C   0  0  0  0  0  0  0  0  0  0  0  0
   -0.2383  -31.7654   23.4498 C   0  0  0  0  0  0  0  0  0  0  0  0
   -1.2885  -32.1511   24.3494 O   0  0  0  0  0  0  0  0  0  0  0  0
   -1.7962  -31.0588   25.1259 C   0  0  0  0  0  0  0  0  0  0  0  0
   -0.8940  -29.8182   25.1090 C   0  0  0  0  0  0  0  0  0  0  0  0
   -2.6264  -26.8904   25.0978 C   0  0  0  0  0  0  0  0  0  0  0  0
  1  2  1  0
  2  3  2  0
  3  4  1  0
  4  5  2  0
  5  6  1  0
  6  7  1  0
  7  8  1  0
  8  9  1  0
  9 10  1  0
 10 11  1  0
 11 12  1  0
 12 13  1  0
  6 14  2  0
 14  2  1  0
 13  8  1  0
M  END
>  <inchikey>  (814) 
CIPIUPMCSFKNEG-UHFFFAOYSA-N

>  <tags>  (814) 
fragmenstein_placed,CpKRS_FrAncestor_bulkdock_iter2

>  <ref_pdb>  (814) 
x0485c

>  <energy_score>  (814) 
-4.993524

>  <distance_score>  (814) 
0.369304

>  <HIPPO Pose ID>  (814) 
56674

>  <ref_mols>  (814) 
x0675b

>  <smiles>  (814) 
Brc1ccnc(CN2CCOCC2)c1

>  <HIPPO Compound ID>  (814) 
34527

>  <alias>  (814) 
CIPIUPMCSFKNEG-UHFFFAOYSA-N-P60

>  <subsites>  (814) 


>  <placement_batch>  (814) 
CpKRS_FrAncestor_bulkdock_iter2

>  <name>  (814) 
CIPIUPMCSFKNEG-UHFFFAOYSA-N-P60

$$$$
RIQBBNFREIFCDA-UHFFFAOYSA-N-P60
     RDKit          3D

 14 15  0  0  0  0  0  0  0  0999 V2000
   -3.8221  -25.4814   27.2313 Br  0  0  0  0  0  0  0  0  0  0  0  0
   -2.6879  -25.6648   25.7362 C   0  0  0  0  0  0  0  0  0  0  0  0
   -1.9409  -24.5873   25.2930 C   0  0  0  0  0  0  0  0  0  0  0  0
   -1.1380  -24.7840   24.1877 C   0  0  0  0  0  0  0  0  0  0  0  0
   -1.0265  -25.9631   23.5389 N   0  0  0  0  0  0  0  0  0  0  0  0
   -1.7668  -27.0062   23.9887 C   0  0  0  0  0  0  0  0  0  0  0  0
   -1.6702  -28.3226   23.2360 C   0  0  0  0  0  0  0  0  0  0  0  0
   -0.6427  -29.2718   23.7168 N   0  0  0  0  0  0  0  0  0  0  0  0
   -0.4915  -30.3652   22.7303 C   0  0  0  0  0  0  0  0  0  0  0  0
   -0.1316  -31.7435   23.2975 C   0  0  0  0  0  0  0  0  0  0  0  0
   -1.4550  -32.3940   24.3791 S   0  0  0  0  0  0  0  0  0  0  0  0
   -1.8918  -30.8577   25.2564 C   0  0  0  0  0  0  0  0  0  0  0  0
   -0.8436  -29.7561   25.0875 C   0  0  0  0  0  0  0  0  0  0  0  0
   -2.6222  -26.8854   25.0790 C   0  0  0  0  0  0  0  0  0  0  0  0
  1  2  1  0
  2  3  2  0
  3  4  1  0
  4  5  2  0
  5  6  1  0
  6  7  1  0
  7  8  1  0
  8  9  1  0
  9 10  1  0
 10 11  1  0
 11 12  1  0
 12 13  1  0
  6 14  2  0
 14  2  1  0
 13  8  1  0
M  END
>  <inchikey>  (815) 
RIQBBNFREIFCDA-UHFFFAOYSA-N

>  <tags>  (815) 
fragmenstein_placed,CpKRS_FrAncestor_bulkdock_iter2

>  <ref_pdb>  (815) 
x0485c

>  <energy_score>  (815) 
-15.013349

>  <distance_score>  (815) 
0.383476

>  <HIPPO Pose ID>  (815) 
56676

>  <ref_mols>  (815) 
x0675b

>  <smiles>  (815) 
Brc1ccnc(CN2CCSCC2)c1

>  <HIPPO Compound ID>  (815) 
34528

>  <alias>  (815) 
RIQBBNFREIFCDA-UHFFFAOYSA-N-P60

>  <subsites>  (815) 


>  <placement_batch>  (815) 
CpKRS_FrAncestor_bulkdock_iter2

>  <name>  (815) 
RIQBBNFREIFCDA-UHFFFAOYSA-N-P60

$$$$
QHTUMQYGZQYEOZ-FIBGUPNXSA-N-P6
     RDKit          3D

 13 13  0  0  0  0  0  0  0  0999 V2000
    1.3164  -13.5203   25.7652 H   0  0  0  0  0  0  0  0  0  0  0  0
    1.9941  -13.7130   26.6053 C   0  0  0  0  0  0  0  0  0  0  0  0
    1.4229  -13.5827   27.5300 H   0  0  0  0  0  0  0  0  0  0  0  0
    2.3041  -14.7622   26.5593 H   0  0  0  0  0  0  0  0  0  0  0  0
    3.1566  -12.8321   26.5816 N   0  0  0  0  0  0  0  0  0  0  0  0
    3.9650  -13.0438   25.3731 C   0  0  0  0  0  0  0  0  0  0  0  0
    4.5556  -11.7640   24.7374 C   0  0  0  0  0  0  0  0  0  0  0  0
    5.0316  -10.8151   25.7426 N   0  0  0  0  0  0  0  0  0  0  0  0
    5.7470   -9.6557   25.2082 C   0  0  0  0  0  0  0  0  0  0  0  0
    5.2016   -8.9939   23.9342 C   0  0  0  0  0  0  0  0  0  0  0  0
    5.9929   -7.8648   23.5684 O   0  0  0  0  0  0  0  0  0  0  0  0
    3.9307  -10.4183   26.6451 C   0  0  0  0  0  0  0  0  0  0  0  0
    2.7622  -11.4295   26.7584 C   0  0  0  0  0  0  0  0  0  0  0  0
  1  2  1  0
  2  3  1  0
  2  4  1  0
  2  5  1  0
  5  6  1  0
  6  7  1  0
  7  8  1  0
  8  9  1  0
  9 10  1  0
 10 11  1  0
  8 12  1  0
 12 13  1  0
 13  5  1  0
M  ISO  3   1   2   3   2   4   2
M  END
>  <inchikey>  (816) 
QHTUMQYGZQYEOZ-UHFFFAOYSA-N

>  <tags>  (816) 
fragmenstein_placed,CpKRS_FrAncestor_bulkdock_iter2

>  <ref_pdb>  (816) 
x0485c

>  <energy_score>  (816) 
-20.312706

>  <distance_score>  (816) 
0.416745

>  <HIPPO Pose ID>  (816) 
56678

>  <ref_mols>  (816) 
x0414a

>  <smiles>  (816) 
[2H]C([2H])([2H])N1CCN(CCO)CC1

>  <HIPPO Compound ID>  (816) 
34531

>  <alias>  (816) 
QHTUMQYGZQYEOZ-FIBGUPNXSA-N-P6

>  <subsites>  (816) 


>  <placement_batch>  (816) 
CpKRS_FrAncestor_bulkdock_iter2

>  <name>  (816) 
QHTUMQYGZQYEOZ-FIBGUPNXSA-N-P6

$$$$
BMEMBBFDTYHTLH-FIBGUPNXSA-N-P6
     RDKit          3D

 13 13  0  0  0  0  0  0  0  0999 V2000
    7.2599   -6.4374   24.6752 H   0  0  0  0  0  0  0  0  0  0  0  0
    6.2464   -6.8397   24.7469 C   0  0  0  0  0  0  0  0  0  0  0  0
    6.0282   -7.0842   25.7888 H   0  0  0  0  0  0  0  0  0  0  0  0
    5.5517   -6.0720   24.4173 H   0  0  0  0  0  0  0  0  0  0  0  0
    6.1456   -7.9607   23.8773 O   0  0  0  0  0  0  0  0  0  0  0  0
    5.1463   -8.9025   24.2807 C   0  0  0  0  0  0  0  0  0  0  0  0
    5.6841   -9.8396   25.3786 C   0  0  0  0  0  0  0  0  0  0  0  0
    4.8510  -10.9572   25.8306 N   0  0  0  0  0  0  0  0  0  0  0  0
    3.7217  -10.5023   26.6672 C   0  0  0  0  0  0  0  0  0  0  0  0
    2.6721  -11.6039   26.9517 C   0  0  0  0  0  0  0  0  0  0  0  0
    3.1517  -12.9684   26.6853 N   0  0  0  0  0  0  0  0  0  0  0  0
    3.6350  -13.0747   25.3004 C   0  0  0  0  0  0  0  0  0  0  0  0
    4.3606  -11.8206   24.7526 C   0  0  0  0  0  0  0  0  0  0  0  0
  1  2  1  0
  2  3  1  0
  2  4  1  0
  2  5  1  0
  5  6  1  0
  6  7  1  0
  7  8  1  0
  8  9  1  0
  9 10  1  0
 10 11  1  0
 11 12  1  0
 12 13  1  0
 13  8  1  0
M  ISO  3   1   2   3   2   4   2
M  END
>  <inchikey>  (817) 
BMEMBBFDTYHTLH-UHFFFAOYSA-N

>  <tags>  (817) 
fragmenstein_placed,CpKRS_FrAncestor_bulkdock_iter2

>  <ref_pdb>  (817) 
x0485c

>  <energy_score>  (817) 
-31.435254

>  <distance_score>  (817) 
0.492487

>  <HIPPO Pose ID>  (817) 
56765

>  <ref_mols>  (817) 
x0414a

>  <smiles>  (817) 
[2H]C([2H])([2H])OCCN1CCNCC1

>  <HIPPO Compound ID>  (817) 
34566

>  <alias>  (817) 
BMEMBBFDTYHTLH-FIBGUPNXSA-N-P6

>  <subsites>  (817) 


>  <placement_batch>  (817) 
CpKRS_FrAncestor_bulkdock_iter2

>  <name>  (817) 
BMEMBBFDTYHTLH-FIBGUPNXSA-N-P6

$$$$
CWGYMRWCBLAOBZ-UHFFFAOYSA-N-P29
     RDKit          3D

 17 18  0  0  0  0  0  0  0  0999 V2000
    2.1282    6.6885   46.1120 C   0  0  0  0  0  0  0  0  0  0  0  0
    2.7807    5.5617   45.3505 C   0  0  0  0  0  0  0  0  0  0  0  0
    2.9974    4.3426   46.0079 C   0  0  0  0  0  0  0  0  0  0  0  0
    2.2626    4.0334   47.6993 Br  0  0  0  0  0  0  0  0  0  0  0  0
    3.6835    3.2843   45.4179 C   0  0  0  0  0  0  0  0  0  0  0  0
    4.0528    3.3694   44.0884 C   0  0  0  0  0  0  0  0  0  0  0  0
    3.7875    4.5419   43.3854 C   0  0  0  0  0  0  0  0  0  0  0  0
    3.2031    5.6536   44.0153 C   0  0  0  0  0  0  0  0  0  0  0  0
    3.0493    6.8356   43.2911 N   0  0  0  0  0  0  0  0  0  0  0  0
    3.3796    7.1596   41.8159 C   0  0  0  0  0  0  0  0  0  0  0  0
    3.7599    6.4674   40.9560 O   0  0  0  0  0  0  0  0  0  0  0  0
    3.1280    8.5753   41.4935 C   0  0  0  0  0  0  0  0  0  0  0  0
    4.0534    9.2622   40.7173 C   0  0  0  0  0  0  0  0  0  0  0  0
    3.7371   10.5497   40.3486 C   0  0  0  0  0  0  0  0  0  0  0  0
    2.5822   11.1438   40.7119 N   0  0  0  0  0  0  0  0  0  0  0  0
    1.6757   10.4614   41.4706 N   0  0  0  0  0  0  0  0  0  0  0  0
    1.9471    9.1981   41.8487 C   0  0  0  0  0  0  0  0  0  0  0  0
  1  2  1  0
  2  3  2  0
  3  4  1  0
  3  5  1  0
  5  6  2  0
  6  7  1  0
  7  8  2  0
  8  9  1  0
  9 10  1  0
 10 11  2  0
 10 12  1  0
 12 13  2  0
 13 14  1  0
 14 15  2  0
 15 16  1  0
 16 17  2  0
  8  2  1  0
 17 12  1  0
M  END
>  <inchikey>  (818) 
CWGYMRWCBLAOBZ-UHFFFAOYSA-N

>  <tags>  (818) 
fragmenstein_placed,CpKRS_FrAncestor_bulkdock_iter2

>  <ref_pdb>  (818) 
x0485c

>  <energy_score>  (818) 
-10.512588

>  <distance_score>  (818) 
0.784822

>  <HIPPO Pose ID>  (818) 
56793

>  <ref_mols>  (818) 
x0485c

>  <smiles>  (818) 
Cc1c(Br)cccc1NC(=O)c1ccnnc1

>  <HIPPO Compound ID>  (818) 
34576

>  <alias>  (818) 
CWGYMRWCBLAOBZ-UHFFFAOYSA-N-P29

>  <subsites>  (818) 


>  <placement_batch>  (818) 
CpKRS_FrAncestor_bulkdock_iter2

>  <name>  (818) 
CWGYMRWCBLAOBZ-UHFFFAOYSA-N-P29

$$$$
SDAWSZAFOBEMQU-UHFFFAOYSA-N-P13
     RDKit          3D

 15 16  0  0  0  0  0  0  0  0999 V2000
    4.5863  -15.6569   26.8228 C   0  0  0  0  0  0  0  0  0  0  0  0
    3.4673  -14.7358   26.5218 C   0  0  0  0  0  0  0  0  0  0  0  0
    2.2326  -14.5747   27.1826 C   0  0  0  0  0  0  0  0  0  0  0  0
    1.7472  -15.4641   28.7689 Br  0  0  0  0  0  0  0  0  0  0  0  0
    1.4580  -13.6419   26.6278 N   0  0  0  0  0  0  0  0  0  0  0  0
    2.2295  -13.1000   25.6125 O   0  0  0  0  0  0  0  0  0  0  0  0
    3.4379  -13.7334   25.5680 C   0  0  0  0  0  0  0  0  0  0  0  0
    4.4607  -13.2453   24.6565 C   0  0  0  0  0  0  0  0  0  0  0  0
    5.3289  -13.9425   24.3146 O   0  0  0  0  0  0  0  0  0  0  0  0
    4.2140  -11.7507   24.3812 N   0  0  0  0  0  0  0  0  0  0  0  0
    5.0267  -10.7828   23.7110 C   0  0  0  0  0  0  0  0  0  0  0  0
    4.6196   -9.3410   23.9713 C   0  0  0  0  0  0  0  0  0  0  0  0
    5.3990   -8.5858   22.9059 C   0  0  0  0  0  0  0  0  0  0  0  0
    5.4466   -9.5251   21.7019 C   0  0  0  0  0  0  0  0  0  0  0  0
    4.9762  -10.8917   22.1957 C   0  0  0  0  0  0  0  0  0  0  0  0
  1  2  1  0
  2  3  1  0
  3  4  1  0
  3  5  2  0
  5  6  1  0
  6  7  1  0
  7  8  1  0
  8  9  2  0
  8 10  1  0
 10 11  1  0
 11 12  1  0
 12 13  1  0
 13 14  1  0
 14 15  1  0
  7  2  2  0
 15 11  1  0
M  END
>  <inchikey>  (819) 
SDAWSZAFOBEMQU-UHFFFAOYSA-N

>  <tags>  (819) 
fragmenstein_placed,CpKRS_FrAncestor_bulkdock_iter2

>  <ref_pdb>  (819) 
x0485c

>  <energy_score>  (819) 
-2.172455

>  <distance_score>  (819) 
0.282467

>  <HIPPO Pose ID>  (819) 
56800

>  <ref_mols>  (819) 
x0421c

>  <smiles>  (819) 
Cc1c(Br)noc1C(=O)NC1CCCC1

>  <HIPPO Compound ID>  (819) 
34578

>  <alias>  (819) 
SDAWSZAFOBEMQU-UHFFFAOYSA-N-P13

>  <subsites>  (819) 


>  <placement_batch>  (819) 
CpKRS_FrAncestor_bulkdock_iter2

>  <name>  (819) 
SDAWSZAFOBEMQU-UHFFFAOYSA-N-P13

$$$$
XHVBCEYBOMWJBA-SVRRBLITSA-N-P13
     RDKit          3D

 16 17  0  0  0  0  0  0  0  0999 V2000
    4.5993  -15.7157   26.9411 C   0  0  0  0  0  0  0  0  0  0  0  0
    3.4850  -14.8150   26.5791 C   0  0  0  0  0  0  0  0  0  0  0  0
    2.2313  -14.6395   27.1998 C   0  0  0  0  0  0  0  0  0  0  0  0
    1.7106  -15.4679   28.8074 Br  0  0  0  0  0  0  0  0  0  0  0  0
    1.4645  -13.7380   26.5864 N   0  0  0  0  0  0  0  0  0  0  0  0
    2.2627  -13.2236   25.5784 O   0  0  0  0  0  0  0  0  0  0  0  0
    3.4806  -13.8417   25.5967 C   0  0  0  0  0  0  0  0  0  0  0  0
    4.5358  -13.3512   24.7234 C   0  0  0  0  0  0  0  0  0  0  0  0
    5.4582  -14.0140   24.4659 O   0  0  0  0  0  0  0  0  0  0  0  0
    4.2280  -11.8886   24.3628 N   0  0  0  0  0  0  0  0  0  0  0  0
    5.0275  -10.9075   23.6933 C   0  0  1  0  0  0  0  0  0  0  0  0
    4.7895  -10.8364   22.1947 C   0  0  0  0  0  0  0  0  0  0  0  0
    5.3105   -9.4590   21.7882 C   0  0  0  0  0  0  0  0  0  0  0  0
    5.5117   -8.6617   23.0784 C   0  0  0  0  0  0  0  0  0  0  0  0
    4.8267   -9.4695   24.1826 C   0  0  1  0  0  0  0  0  0  0  0  0
    3.3673   -9.0561   24.3579 C   0  0  0  0  0  0  0  0  0  0  0  0
  1  2  1  0
  2  3  1  0
  3  4  1  0
  3  5  2  0
  5  6  1  0
  6  7  1  0
  7  8  1  0
  8  9  2  0
  8 10  1  0
 11 10  1  1
 11 12  1  0
 12 13  1  0
 13 14  1  0
 14 15  1  0
 15 16  1  6
  7  2  2  0
 15 11  1  0
M  END
>  <inchikey>  (820) 
XHVBCEYBOMWJBA-UHFFFAOYSA-N

>  <tags>  (820) 
fragmenstein_placed,CpKRS_FrAncestor_bulkdock_iter2

>  <ref_pdb>  (820) 
x0485c

>  <energy_score>  (820) 
-4.306219

>  <distance_score>  (820) 
0.283176

>  <HIPPO Pose ID>  (820) 
56812

>  <ref_mols>  (820) 
x0421c

>  <smiles>  (820) 
Cc1c(Br)noc1C(=O)N[C@H]1CCC[C@H]1C

>  <HIPPO Compound ID>  (820) 
34577

>  <alias>  (820) 
XHVBCEYBOMWJBA-SVRRBLITSA-N-P13

>  <subsites>  (820) 


>  <placement_batch>  (820) 
CpKRS_FrAncestor_bulkdock_iter2

>  <name>  (820) 
XHVBCEYBOMWJBA-SVRRBLITSA-N-P13

$$$$
DYSQNAOBSFXTEW-POYBYMJQSA-N-P13
     RDKit          3D

 16 17  0  0  0  0  0  0  0  0999 V2000
    4.3935  -15.7702   27.0153 C   0  0  0  0  0  0  0  0  0  0  0  0
    3.3016  -14.8367   26.6620 C   0  0  0  0  0  0  0  0  0  0  0  0
    2.0586  -14.6164   27.2880 C   0  0  0  0  0  0  0  0  0  0  0  0
    1.5202  -15.4194   28.9025 Br  0  0  0  0  0  0  0  0  0  0  0  0
    1.3255  -13.6804   26.6842 N   0  0  0  0  0  0  0  0  0  0  0  0
    2.1398  -13.1871   25.6782 O   0  0  0  0  0  0  0  0  0  0  0  0
    3.3294  -13.8531   25.6905 C   0  0  0  0  0  0  0  0  0  0  0  0
    4.4191  -13.3834   24.8558 C   0  0  0  0  0  0  0  0  0  0  0  0
    5.2764  -14.1030   24.5346 O   0  0  0  0  0  0  0  0  0  0  0  0
    4.2468  -11.8733   24.6248 N   0  0  0  0  0  0  0  0  0  0  0  0
    5.1277  -10.9211   24.0390 C   0  0  2  0  0  0  0  0  0  0  0  0
    4.8608   -9.4777   24.4353 C   0  0  0  0  0  0  0  0  0  0  0  0
    5.8029   -8.7364   23.5062 C   0  0  0  0  0  0  0  0  0  0  0  0
    5.7161   -9.5229   22.1921 C   0  0  2  0  0  0  0  0  0  0  0  0
    4.8500   -8.7750   21.2188 C   0  0  0  0  0  0  0  0  0  0  0  0
    5.1114  -10.8927   22.5247 C   0  0  0  0  0  0  0  0  0  0  0  0
  1  2  1  0
  2  3  1  0
  3  4  1  0
  3  5  2  0
  5  6  1  0
  6  7  1  0
  7  8  1  0
  8  9  2  0
  8 10  1  0
 11 10  1  1
 11 12  1  0
 12 13  1  0
 13 14  1  0
 14 15  1  6
 14 16  1  0
  7  2  2  0
 16 11  1  0
M  END
>  <inchikey>  (821) 
DYSQNAOBSFXTEW-UHFFFAOYSA-N

>  <tags>  (821) 
fragmenstein_placed,CpKRS_FrAncestor_bulkdock_iter2

>  <ref_pdb>  (821) 
x0485c

>  <energy_score>  (821) 
-22.179817

>  <distance_score>  (821) 
0.440893

>  <HIPPO Pose ID>  (821) 
56816

>  <ref_mols>  (821) 
x0421c

>  <smiles>  (821) 
Cc1c(Br)noc1C(=O)N[C@@H]1CC[C@H](C)C1

>  <HIPPO Compound ID>  (821) 
34579

>  <alias>  (821) 
DYSQNAOBSFXTEW-POYBYMJQSA-N-P13

>  <subsites>  (821) 


>  <placement_batch>  (821) 
CpKRS_FrAncestor_bulkdock_iter2

>  <name>  (821) 
DYSQNAOBSFXTEW-POYBYMJQSA-N-P13

$$$$
YSRXLKGMYNZFEZ-UHFFFAOYSA-N-P45
     RDKit          3D

 16 17  0  0  0  0  0  0  0  0999 V2000
    4.4750  -15.6712   27.2327 C   0  0  0  0  0  0  0  0  0  0  0  0
    3.4016  -14.7218   26.8694 C   0  0  0  0  0  0  0  0  0  0  0  0
    2.1643  -14.5110   27.5018 C   0  0  0  0  0  0  0  0  0  0  0  0
    1.6799  -15.2851   29.1346 Br  0  0  0  0  0  0  0  0  0  0  0  0
    1.3831  -13.6336   26.8721 N   0  0  0  0  0  0  0  0  0  0  0  0
    2.1587  -13.1824   25.8130 O   0  0  0  0  0  0  0  0  0  0  0  0
    3.3812  -13.7996   25.8388 C   0  0  0  0  0  0  0  0  0  0  0  0
    4.4103  -13.3786   24.8965 C   0  0  0  0  0  0  0  0  0  0  0  0
    5.5230  -13.6700   25.0786 O   0  0  0  0  0  0  0  0  0  0  0  0
    3.7702  -12.5423   23.7775 N   0  0  0  0  0  0  0  0  0  0  0  0
    4.3714  -11.8109   22.7019 C   0  0  0  0  0  0  0  0  0  0  0  0
    4.2849  -10.3047   22.8986 C   0  0  0  0  0  0  0  0  0  0  0  0
    4.9750   -9.5249   21.7833 C   0  0  0  0  0  0  0  0  0  0  0  0
    5.0986   -8.1392   22.3856 C   0  0  0  0  0  0  0  0  0  0  0  0
    5.5019   -8.3960   23.8301 C   0  0  0  0  0  0  0  0  0  0  0  0
    4.9820   -9.7949   24.1636 C   0  0  0  0  0  0  0  0  0  0  0  0
  1  2  1  0
  2  3  1  0
  3  4  1  0
  3  5  2  0
  5  6  1  0
  6  7  1  0
  7  8  1  0
  8  9  2  0
  8 10  1  0
 10 11  1  0
 11 12  1  0
 12 13  1  0
 13 14  1  0
 14 15  1  0
 15 16  1  0
  7  2  2  0
 16 12  1  0
M  END
>  <inchikey>  (822) 
YSRXLKGMYNZFEZ-UHFFFAOYSA-N

>  <tags>  (822) 
fragmenstein_placed,CpKRS_FrAncestor_bulkdock_iter2

>  <ref_pdb>  (822) 
x0485c

>  <energy_score>  (822) 
-3.902287

>  <distance_score>  (822) 
0.438633

>  <HIPPO Pose ID>  (822) 
56818

>  <ref_mols>  (822) 
x0502a

>  <smiles>  (822) 
Cc1c(Br)noc1C(=O)NCC1CCCC1

>  <HIPPO Compound ID>  (822) 
34581

>  <alias>  (822) 
YSRXLKGMYNZFEZ-UHFFFAOYSA-N-P45

>  <subsites>  (822) 


>  <placement_batch>  (822) 
CpKRS_FrAncestor_bulkdock_iter2

>  <name>  (822) 
YSRXLKGMYNZFEZ-UHFFFAOYSA-N-P45

$$$$
QGWFGCGOSALRJC-UHFFFAOYSA-N-P49
     RDKit          3D

 15 15  0  0  0  0  0  0  0  0999 V2000
    4.4414  -15.7044   26.8475 C   0  0  0  0  0  0  0  0  0  0  0  0
    3.3021  -14.7800   26.6515 C   0  0  0  0  0  0  0  0  0  0  0  0
    2.1066  -14.6625   27.3887 C   0  0  0  0  0  0  0  0  0  0  0  0
    1.6926  -15.6506   28.9321 Br  0  0  0  0  0  0  0  0  0  0  0  0
    1.2849  -13.7315   26.9067 N   0  0  0  0  0  0  0  0  0  0  0  0
    1.9732  -13.1619   25.8482 O   0  0  0  0  0  0  0  0  0  0  0  0
    3.1863  -13.7749   25.7039 C   0  0  0  0  0  0  0  0  0  0  0  0
    4.1146  -13.3024   24.6808 C   0  0  0  0  0  0  0  0  0  0  0  0
    5.1170  -13.8701   24.5081 O   0  0  0  0  0  0  0  0  0  0  0  0
    3.5486  -12.0474   23.9942 N   0  0  0  0  0  0  0  0  0  0  0  0
    4.1410  -11.1654   23.0108 C   0  0  0  0  0  0  0  0  0  0  0  0
    4.3781   -9.7324   23.5017 C   0  0  0  0  0  0  0  0  0  0  0  0
    5.3163   -8.9544   22.6036 C   0  0  0  0  0  0  0  0  0  0  0  0
    3.1905   -9.0602   23.5395 F   0  0  0  0  0  0  0  0  0  0  0  0
    4.8713   -9.7270   24.7656 F   0  0  0  0  0  0  0  0  0  0  0  0
  1  2  1  0
  2  3  1  0
  3  4  1  0
  3  5  2  0
  5  6  1  0
  6  7  1  0
  7  8  1  0
  8  9  2  0
  8 10  1  0
 10 11  1  0
 11 12  1  0
 12 13  1  0
 12 14  1  0
 12 15  1  0
  7  2  2  0
M  END
>  <inchikey>  (823) 
QGWFGCGOSALRJC-UHFFFAOYSA-N

>  <tags>  (823) 
fragmenstein_placed,CpKRS_FrAncestor_bulkdock_iter2

>  <ref_pdb>  (823) 
x0485c

>  <energy_score>  (823) 
-3.82327

>  <distance_score>  (823) 
0.449801

>  <HIPPO Pose ID>  (823) 
56822

>  <ref_mols>  (823) 
x0504b

>  <smiles>  (823) 
Cc1c(Br)noc1C(=O)NCC(C)(F)F

>  <HIPPO Compound ID>  (823) 
34582

>  <alias>  (823) 
QGWFGCGOSALRJC-UHFFFAOYSA-N-P49

>  <subsites>  (823) 


>  <placement_batch>  (823) 
CpKRS_FrAncestor_bulkdock_iter2

>  <name>  (823) 
QGWFGCGOSALRJC-UHFFFAOYSA-N-P49

$$$$
SKAMUTIDRBUUHR-UHFFFAOYSA-N-P49
     RDKit          3D

 14 14  0  0  0  0  0  0  0  0999 V2000
    4.5076  -15.6289   26.7232 C   0  0  0  0  0  0  0  0  0  0  0  0
    3.3060  -14.7703   26.6226 C   0  0  0  0  0  0  0  0  0  0  0  0
    2.1612  -14.7345   27.4450 C   0  0  0  0  0  0  0  0  0  0  0  0
    1.9138  -15.7703   28.9901 Br  0  0  0  0  0  0  0  0  0  0  0  0
    1.2552  -13.8441   27.0455 N   0  0  0  0  0  0  0  0  0  0  0  0
    1.8329  -13.2156   25.9568 O   0  0  0  0  0  0  0  0  0  0  0  0
    3.0638  -13.7570   25.7094 C   0  0  0  0  0  0  0  0  0  0  0  0
    3.8717  -13.2078   24.6264 C   0  0  0  0  0  0  0  0  0  0  0  0
    4.8366  -13.7584   24.2770 O   0  0  0  0  0  0  0  0  0  0  0  0
    3.2443  -11.8908   24.1400 N   0  0  0  0  0  0  0  0  0  0  0  0
    3.7219  -10.9225   23.1849 C   0  0  0  0  0  0  0  0  0  0  0  0
    4.9027  -10.1180   23.7285 C   0  0  1  0  0  0  0  0  0  0  0  0
    5.4293   -9.1258   22.7091 C   0  0  0  0  0  0  0  0  0  0  0  0
    4.4862   -9.4121   24.8202 F   0  0  0  0  0  0  0  0  0  0  0  0
  1  2  1  0
  2  3  1  0
  3  4  1  0
  3  5  2  0
  5  6  1  0
  6  7  1  0
  7  8  1  0
  8  9  2  0
  8 10  1  0
 10 11  1  0
 11 12  1  0
 12 13  1  6
 12 14  1  0
  7  2  2  0
M  END
>  <inchikey>  (824) 
SKAMUTIDRBUUHR-UHFFFAOYSA-N

>  <tags>  (824) 
fragmenstein_placed,CpKRS_FrAncestor_bulkdock_iter2

>  <ref_pdb>  (824) 
x0485c

>  <energy_score>  (824) 
-1.041184

>  <distance_score>  (824) 
0.542171

>  <HIPPO Pose ID>  (824) 
56825

>  <ref_mols>  (824) 
x0504b

>  <smiles>  (824) 
Cc1c(Br)noc1C(=O)NCC(C)F

>  <HIPPO Compound ID>  (824) 
34583

>  <alias>  (824) 
SKAMUTIDRBUUHR-UHFFFAOYSA-N-P49

>  <subsites>  (824) 


>  <placement_batch>  (824) 
CpKRS_FrAncestor_bulkdock_iter2

>  <name>  (824) 
SKAMUTIDRBUUHR-UHFFFAOYSA-N-P49

$$$$
BSOYWIBDHPLVHC-UHFFFAOYSA-N-P49
     RDKit          3D

 14 14  0  0  0  0  0  0  0  0999 V2000
    4.5203  -15.6701   26.4874 C   0  0  0  0  0  0  0  0  0  0  0  0
    3.3296  -14.7908   26.5124 C   0  0  0  0  0  0  0  0  0  0  0  0
    2.2437  -14.7967   27.4115 C   0  0  0  0  0  0  0  0  0  0  0  0
    2.1221  -15.8922   28.9282 Br  0  0  0  0  0  0  0  0  0  0  0  0
    1.3117  -13.8925   27.1169 N   0  0  0  0  0  0  0  0  0  0  0  0
    1.8294  -13.1914   26.0432 O   0  0  0  0  0  0  0  0  0  0  0  0
    3.0528  -13.7008   25.7033 C   0  0  0  0  0  0  0  0  0  0  0  0
    3.8252  -13.0347   24.6604 C   0  0  0  0  0  0  0  0  0  0  0  0
    4.8377  -13.4827   24.3014 O   0  0  0  0  0  0  0  0  0  0  0  0
    3.0865  -11.7625   24.2172 N   0  0  0  0  0  0  0  0  0  0  0  0
    3.4828  -10.7188   23.3038 C   0  0  0  0  0  0  0  0  0  0  0  0
    4.7989  -10.0434   23.6788 C   0  0  0  0  0  0  0  0  0  0  0  0
    5.0509   -9.0366   22.8003 F   0  0  0  0  0  0  0  0  0  0  0  0
    4.6843   -9.4557   24.8991 F   0  0  0  0  0  0  0  0  0  0  0  0
  1  2  1  0
  2  3  1  0
  3  4  1  0
  3  5  2  0
  5  6  1  0
  6  7  1  0
  7  8  1  0
  8  9  2  0
  8 10  1  0
 10 11  1  0
 11 12  1  0
 12 13  1  0
 12 14  1  0
  7  2  2  0
M  END
>  <inchikey>  (825) 
BSOYWIBDHPLVHC-UHFFFAOYSA-N

>  <tags>  (825) 
fragmenstein_placed,CpKRS_FrAncestor_bulkdock_iter2

>  <ref_pdb>  (825) 
x0485c

>  <energy_score>  (825) 
-9.919495

>  <distance_score>  (825) 
0.380991

>  <HIPPO Pose ID>  (825) 
56828

>  <ref_mols>  (825) 
x0504b

>  <smiles>  (825) 
Cc1c(Br)noc1C(=O)NCC(F)F

>  <HIPPO Compound ID>  (825) 
34584

>  <alias>  (825) 
BSOYWIBDHPLVHC-UHFFFAOYSA-N-P49

>  <subsites>  (825) 


>  <placement_batch>  (825) 
CpKRS_FrAncestor_bulkdock_iter2

>  <name>  (825) 
BSOYWIBDHPLVHC-UHFFFAOYSA-N-P49

$$$$
XNGVAGBTQWEQDW-UHFFFAOYSA-N-P16
     RDKit          3D

 17 18  0  0  0  0  0  0  0  0999 V2000
    3.4708  -16.2592   28.8452 C   0  0  0  0  0  0  0  0  0  0  0  0
    3.0639  -15.3203   27.7533 C   0  0  0  0  0  0  0  0  0  0  0  0
    1.7688  -14.7958   27.7360 C   0  0  0  0  0  0  0  0  0  0  0  0
    1.3874  -13.9215   26.7230 C   0  0  0  0  0  0  0  0  0  0  0  0
   -0.3895  -13.2813   26.6551 Br  0  0  0  0  0  0  0  0  0  0  0  0
    2.2949  -13.5181   25.7457 C   0  0  0  0  0  0  0  0  0  0  0  0
    3.5933  -14.0421   25.7421 C   0  0  0  0  0  0  0  0  0  0  0  0
    4.6503  -13.5544   24.7886 C   0  0  0  0  0  0  0  0  0  0  0  0
    5.7483  -13.5299   25.1744 O   0  0  0  0  0  0  0  0  0  0  0  0
    4.0504  -13.0676   23.4613 N   0  0  0  0  0  0  0  0  0  0  0  0
    4.6866  -12.5346   22.2903 C   0  0  0  0  0  0  0  0  0  0  0  0
    4.9321  -11.0868   22.4590 C   0  0  0  0  0  0  0  0  0  0  0  0
    5.3752  -10.2915   23.4874 C   0  0  0  0  0  0  0  0  0  0  0  0
    5.4267   -9.0029   22.9364 C   0  0  0  0  0  0  0  0  0  0  0  0
    5.0060   -8.9855   21.6705 N   0  0  0  0  0  0  0  0  0  0  0  0
    4.7280  -10.3080   21.3603 O   0  0  0  0  0  0  0  0  0  0  0  0
    3.9641  -14.9567   26.7408 C   0  0  0  0  0  0  0  0  0  0  0  0
  1  2  1  0
  2  3  2  0
  3  4  1  0
  4  5  1  0
  4  6  2  0
  6  7  1  0
  7  8  1  0
  8  9  2  0
  8 10  1  0
 10 11  1  0
 11 12  1  0
 12 13  2  0
 13 14  1  0
 14 15  2  0
 15 16  1  0
  7 17  2  0
 17  2  1  0
 16 12  1  0
M  END
>  <inchikey>  (826) 
XNGVAGBTQWEQDW-UHFFFAOYSA-N

>  <tags>  (826) 
fragmenstein_placed,CpKRS_FrAncestor_bulkdock_iter2

>  <ref_pdb>  (826) 
x0485c

>  <energy_score>  (826) 
-5.274563

>  <distance_score>  (826) 
0.450843

>  <HIPPO Pose ID>  (826) 
56832

>  <ref_mols>  (826) 
x0426a

>  <smiles>  (826) 
Cc1cc(Br)cc(C(=O)NCc2ccno2)c1

>  <HIPPO Compound ID>  (826) 
34590

>  <alias>  (826) 
XNGVAGBTQWEQDW-UHFFFAOYSA-N-P16

>  <subsites>  (826) 


>  <placement_batch>  (826) 
CpKRS_FrAncestor_bulkdock_iter2

>  <name>  (826) 
XNGVAGBTQWEQDW-UHFFFAOYSA-N-P16

$$$$
SWYSJHWNRGSVNB-UHFFFAOYSA-N-P30
     RDKit          3D

 19 20  0  0  0  0  0  0  0  0999 V2000
    4.7023  -12.5539   22.4088 C   0  0  0  0  0  0  0  0  0  0  0  0
    4.8305  -11.2312   23.0918 C   0  0  0  0  0  0  0  0  0  0  0  0
    5.2428  -10.1596   22.3131 C   0  0  0  0  0  0  0  0  0  0  0  0
    5.2554   -8.8952   22.8672 C   0  0  0  0  0  0  0  0  0  0  0  0
    5.5384   -7.4552   21.7791 Br  0  0  0  0  0  0  0  0  0  0  0  0
    4.9050   -8.6529   24.1743 C   0  0  0  0  0  0  0  0  0  0  0  0
    4.9708   -7.4181   24.6902 F   0  0  0  0  0  0  0  0  0  0  0  0
    4.4338   -9.6871   24.9329 C   0  0  0  0  0  0  0  0  0  0  0  0
    4.4617  -10.9850   24.4180 C   0  0  0  0  0  0  0  0  0  0  0  0
    4.0584  -11.9693   25.2904 N   0  0  0  0  0  0  0  0  0  0  0  0
    4.5057  -13.4412   25.4175 C   0  0  0  0  0  0  0  0  0  0  0  0
    5.3394  -14.0281   24.8546 O   0  0  0  0  0  0  0  0  0  0  0  0
    3.6437  -14.1177   26.4140 C   0  0  0  0  0  0  0  0  0  0  0  0
    4.2124  -15.0271   27.3018 C   0  0  0  0  0  0  0  0  0  0  0  0
    3.4522  -15.4970   28.3690 C   0  0  0  0  0  0  0  0  0  0  0  0
    2.1339  -15.0651   28.5300 C   0  0  0  0  0  0  0  0  0  0  0  0
    1.5616  -14.2329   27.5778 C   0  0  0  0  0  0  0  0  0  0  0  0
    0.2884  -13.8364   27.7024 F   0  0  0  0  0  0  0  0  0  0  0  0
    2.2919  -13.7749   26.5059 C   0  0  0  0  0  0  0  0  0  0  0  0
  1  2  1  0
  2  3  2  0
  3  4  1  0
  4  5  1  0
  4  6  2  0
  6  7  1  0
  6  8  1  0
  8  9  2  0
  9 10  1  0
 10 11  1  0
 11 12  2  0
 11 13  1  0
 13 14  2  0
 14 15  1  0
 15 16  2  0
 16 17  1  0
 17 18  1  0
 17 19  2  0
  9  2  1  0
 19 13  1  0
M  END
>  <inchikey>  (827) 
SWYSJHWNRGSVNB-UHFFFAOYSA-N

>  <tags>  (827) 
fragmenstein_placed,CpKRS_FrAncestor_bulkdock_iter2

>  <ref_pdb>  (827) 
x0485c

>  <energy_score>  (827) 
-0.424886

>  <distance_score>  (827) 
0.602152

>  <HIPPO Pose ID>  (827) 
56838

>  <ref_mols>  (827) 
x0485a

>  <smiles>  (827) 
Cc1cc(Br)c(F)cc1NC(=O)c1cccc(F)c1

>  <HIPPO Compound ID>  (827) 
34593

>  <alias>  (827) 
SWYSJHWNRGSVNB-UHFFFAOYSA-N-P30

>  <subsites>  (827) 


>  <placement_batch>  (827) 
CpKRS_FrAncestor_bulkdock_iter2

>  <name>  (827) 
SWYSJHWNRGSVNB-UHFFFAOYSA-N-P30

$$$$
KNKIWFAXYPFHPL-UHFFFAOYSA-N-P64
     RDKit          3D

 17 18  0  0  0  0  0  0  0  0999 V2000
    1.4406  -12.1341   25.0116 C   0  0  0  0  0  0  0  0  0  0  0  0
    2.2301  -13.2008   25.6797 C   0  0  0  0  0  0  0  0  0  0  0  0
    1.8340  -13.8671   26.8799 C   0  0  0  0  0  0  0  0  0  0  0  0
    2.7747  -14.8330   27.1287 C   0  0  0  0  0  0  0  0  0  0  0  0
    2.7212  -16.0658   28.5739 Br  0  0  0  0  0  0  0  0  0  0  0  0
    3.7407  -14.7954   26.1843 O   0  0  0  0  0  0  0  0  0  0  0  0
    3.4331  -13.7943   25.2900 C   0  0  0  0  0  0  0  0  0  0  0  0
    4.3609  -13.6458   24.1538 C   0  0  0  0  0  0  0  0  0  0  0  0
    5.0267  -14.5530   23.8575 O   0  0  0  0  0  0  0  0  0  0  0  0
    4.2029  -12.2679   23.4912 N   0  0  0  0  0  0  0  0  0  0  0  0
    4.8984  -11.6821   22.3822 C   0  0  0  0  0  0  0  0  0  0  0  0
    5.1419  -10.2330   22.6373 C   0  0  0  0  0  0  0  0  0  0  0  0
    4.9947   -9.1622   21.7117 C   0  0  0  0  0  0  0  0  0  0  0  0
    5.3376   -7.9906   22.3510 C   0  0  0  0  0  0  0  0  0  0  0  0
    5.7397   -8.3078   23.6176 N   0  0  0  0  0  0  0  0  0  0  0  0
    6.2519   -7.3906   24.6116 C   0  0  0  0  0  0  0  0  0  0  0  0
    5.6120   -9.6546   23.8008 C   0  0  0  0  0  0  0  0  0  0  0  0
  1  2  1  0
  2  3  1  0
  3  4  2  0
  4  5  1  0
  4  6  1  0
  6  7  1  0
  7  8  1  0
  8  9  2  0
  8 10  1  0
 10 11  1  0
 11 12  1  0
 12 13  1  0
 13 14  2  0
 14 15  1  0
 15 16  1  0
 15 17  1  0
  7  2  2  0
 17 12  2  0
M  END
>  <inchikey>  (828) 
KNKIWFAXYPFHPL-UHFFFAOYSA-N

>  <tags>  (828) 
fragmenstein_placed,CpKRS_FrAncestor_bulkdock_iter2

>  <ref_pdb>  (828) 
x0485c

>  <energy_score>  (828) 
-25.8916

>  <distance_score>  (828) 
0.391754

>  <HIPPO Pose ID>  (828) 
56845

>  <ref_mols>  (828) 
x0787b

>  <smiles>  (828) 
Cc1cc(Br)oc1C(=O)NCc1ccn(C)c1

>  <HIPPO Compound ID>  (828) 
34595

>  <alias>  (828) 
KNKIWFAXYPFHPL-UHFFFAOYSA-N-P64

>  <subsites>  (828) 


>  <placement_batch>  (828) 
CpKRS_FrAncestor_bulkdock_iter2

>  <name>  (828) 
KNKIWFAXYPFHPL-UHFFFAOYSA-N-P64

$$$$
MXTMFOCYBBNFDJ-UHFFFAOYSA-N-P64
     RDKit          3D

 18 19  0  0  0  0  0  0  0  0999 V2000
    1.5353  -11.8694   24.8754 C   0  0  0  0  0  0  0  0  0  0  0  0
    2.3055  -13.0004   25.4542 C   0  0  0  0  0  0  0  0  0  0  0  0
    1.8954  -13.7225   26.6208 C   0  0  0  0  0  0  0  0  0  0  0  0
    2.8230  -14.7084   26.8299 C   0  0  0  0  0  0  0  0  0  0  0  0
    2.7597  -15.9900   28.2352 Br  0  0  0  0  0  0  0  0  0  0  0  0
    3.7847  -14.6424   25.8825 O   0  0  0  0  0  0  0  0  0  0  0  0
    3.4980  -13.5937   25.0264 C   0  0  0  0  0  0  0  0  0  0  0  0
    4.4694  -13.4081   23.9193 C   0  0  0  0  0  0  0  0  0  0  0  0
    5.2506  -14.2531   23.7383 O   0  0  0  0  0  0  0  0  0  0  0  0
    4.2257  -12.0920   23.1529 N   0  0  0  0  0  0  0  0  0  0  0  0
    4.9531  -11.4965   22.0627 C   0  0  0  0  0  0  0  0  0  0  0  0
    5.1158  -10.0335   22.2744 C   0  0  0  0  0  0  0  0  0  0  0  0
    4.8771   -8.9587   21.3934 C   0  0  0  0  0  0  0  0  0  0  0  0
    5.0932   -7.7530   21.9396 N   0  0  0  0  0  0  0  0  0  0  0  0
    5.5829   -8.0526   23.1504 N   0  0  0  0  0  0  0  0  0  0  0  0
    5.9944   -7.0462   24.1019 C   0  0  0  0  0  0  0  0  0  0  0  0
    5.6371   -9.3881   23.3666 C   0  0  0  0  0  0  0  0  0  0  0  0
    6.1977   -9.8952   24.5947 C   0  0  0  0  0  0  0  0  0  0  0  0
  1  2  1  0
  2  3  1  0
  3  4  2  0
  4  5  1  0
  4  6  1  0
  6  7  1  0
  7  8  1  0
  8  9  2  0
  8 10  1  0
 10 11  1  0
 11 12  1  0
 12 13  1  0
 13 14  2  0
 14 15  1  0
 15 16  1  0
 15 17  1  0
 17 18  1  0
  7  2  2  0
 17 12  2  0
M  END
>  <inchikey>  (829) 
MXTMFOCYBBNFDJ-UHFFFAOYSA-N

>  <tags>  (829) 
fragmenstein_placed,CpKRS_FrAncestor_bulkdock_iter2

>  <ref_pdb>  (829) 
x0485c

>  <energy_score>  (829) 
-8.783483

>  <distance_score>  (829) 
0.592258

>  <HIPPO Pose ID>  (829) 
56847

>  <ref_mols>  (829) 
x0787b

>  <smiles>  (829) 
Cc1cc(Br)oc1C(=O)NCc1cnn(C)c1C

>  <HIPPO Compound ID>  (829) 
34596

>  <alias>  (829) 
MXTMFOCYBBNFDJ-UHFFFAOYSA-N-P64

>  <subsites>  (829) 


>  <placement_batch>  (829) 
CpKRS_FrAncestor_bulkdock_iter2

>  <name>  (829) 
MXTMFOCYBBNFDJ-UHFFFAOYSA-N-P64

$$$$
DLKKNENIHSFMBE-UHFFFAOYSA-N-P16
     RDKit          3D

 17 18  0  0  0  0  0  0  0  0999 V2000
    5.4103  -15.8146   26.4015 C   0  0  0  0  0  0  0  0  0  0  0  0
    4.0937  -15.1050   26.5030 C   0  0  0  0  0  0  0  0  0  0  0  0
    3.1968  -15.5294   27.4994 C   0  0  0  0  0  0  0  0  0  0  0  0
    1.9448  -14.9337   27.6290 C   0  0  0  0  0  0  0  0  0  0  0  0
    1.5653  -13.9389   26.7366 C   0  0  0  0  0  0  0  0  0  0  0  0
   -0.1957  -13.2595   26.7771 Br  0  0  0  0  0  0  0  0  0  0  0  0
    2.4590  -13.4596   25.7813 C   0  0  0  0  0  0  0  0  0  0  0  0
    3.7332  -14.0346   25.6612 C   0  0  0  0  0  0  0  0  0  0  0  0
    4.7358  -13.4178   24.7279 C   0  0  0  0  0  0  0  0  0  0  0  0
    5.8090  -13.2377   25.1372 O   0  0  0  0  0  0  0  0  0  0  0  0
    4.1083  -13.0347   23.3835 N   0  0  0  0  0  0  0  0  0  0  0  0
    4.6915  -12.4339   22.2221 C   0  0  0  0  0  0  0  0  0  0  0  0
    4.8855  -10.9789   22.4137 C   0  0  0  0  0  0  0  0  0  0  0  0
    4.9457   -9.9861   21.4126 C   0  0  0  0  0  0  0  0  0  0  0  0
    5.1119   -8.7588   21.9072 N   0  0  0  0  0  0  0  0  0  0  0  0
    5.2283   -8.9377   23.2739 O   0  0  0  0  0  0  0  0  0  0  0  0
    5.1028  -10.2547   23.5615 C   0  0  0  0  0  0  0  0  0  0  0  0
  1  2  1  0
  2  3  2  0
  3  4  1  0
  4  5  2  0
  5  6  1  0
  5  7  1  0
  7  8  2  0
  8  9  1  0
  9 10  2  0
  9 11  1  0
 11 12  1  0
 12 13  1  0
 13 14  1  0
 14 15  2  0
 15 16  1  0
 16 17  1  0
  8  2  1  0
 17 13  2  0
M  END
>  <inchikey>  (830) 
DLKKNENIHSFMBE-UHFFFAOYSA-N

>  <tags>  (830) 
fragmenstein_placed,CpKRS_FrAncestor_bulkdock_iter2

>  <ref_pdb>  (830) 
x0485c

>  <energy_score>  (830) 
-1.955938

>  <distance_score>  (830) 
0.574613

>  <HIPPO Pose ID>  (830) 
56867

>  <ref_mols>  (830) 
x0426a

>  <smiles>  (830) 
Cc1ccc(Br)cc1C(=O)NCc1cnoc1

>  <HIPPO Compound ID>  (830) 
34609

>  <alias>  (830) 
DLKKNENIHSFMBE-UHFFFAOYSA-N-P16

>  <subsites>  (830) 


>  <placement_batch>  (830) 
CpKRS_FrAncestor_bulkdock_iter2

>  <name>  (830) 
DLKKNENIHSFMBE-UHFFFAOYSA-N-P16

$$$$
YFWJNEKEPKHZLJ-UHFFFAOYSA-N-P30
     RDKit          3D

 17 18  0  0  0  0  0  0  0  0999 V2000
    4.6661  -12.2846   22.2101 C   0  0  0  0  0  0  0  0  0  0  0  0
    4.8726  -10.9473   22.8535 C   0  0  0  0  0  0  0  0  0  0  0  0
    5.3460   -9.9000   22.0455 C   0  0  0  0  0  0  0  0  0  0  0  0
    5.5830   -8.6374   22.5746 C   0  0  0  0  0  0  0  0  0  0  0  0
    5.3317   -8.4111   23.9174 C   0  0  0  0  0  0  0  0  0  0  0  0
    5.8828   -6.8053   24.7255 Br  0  0  0  0  0  0  0  0  0  0  0  0
    4.7544   -9.3973   24.7056 C   0  0  0  0  0  0  0  0  0  0  0  0
    4.5897  -10.6881   24.1989 C   0  0  0  0  0  0  0  0  0  0  0  0
    4.1534  -11.6528   25.1017 N   0  0  0  0  0  0  0  0  0  0  0  0
    4.5326  -13.1497   25.2367 C   0  0  0  0  0  0  0  0  0  0  0  0
    5.3254  -13.7837   24.6611 O   0  0  0  0  0  0  0  0  0  0  0  0
    3.7042  -13.8348   26.2612 C   0  0  0  0  0  0  0  0  0  0  0  0
    2.3845  -13.4891   26.5130 C   0  0  0  0  0  0  0  0  0  0  0  0
    1.7336  -14.1758   27.5126 C   0  0  0  0  0  0  0  0  0  0  0  0
    2.3039  -15.1597   28.2366 N   0  0  0  0  0  0  0  0  0  0  0  0
    3.5780  -15.5311   27.9565 N   0  0  0  0  0  0  0  0  0  0  0  0
    4.2521  -14.8861   26.9745 C   0  0  0  0  0  0  0  0  0  0  0  0
  1  2  1  0
  2  3  2  0
  3  4  1  0
  4  5  2  0
  5  6  1  0
  5  7  1  0
  7  8  2  0
  8  9  1  0
  9 10  1  0
 10 11  2  0
 10 12  1  0
 12 13  2  0
 13 14  1  0
 14 15  2  0
 15 16  1  0
 16 17  2  0
  8  2  1  0
 17 12  1  0
M  END
>  <inchikey>  (831) 
YFWJNEKEPKHZLJ-UHFFFAOYSA-N

>  <tags>  (831) 
fragmenstein_placed,CpKRS_FrAncestor_bulkdock_iter2

>  <ref_pdb>  (831) 
x0485c

>  <energy_score>  (831) 
-4.535869

>  <distance_score>  (831) 
0.309274

>  <HIPPO Pose ID>  (831) 
56869

>  <ref_mols>  (831) 
x0485a

>  <smiles>  (831) 
Cc1ccc(Br)cc1NC(=O)c1ccnnc1

>  <HIPPO Compound ID>  (831) 
34610

>  <alias>  (831) 
YFWJNEKEPKHZLJ-UHFFFAOYSA-N-P30

>  <subsites>  (831) 


>  <placement_batch>  (831) 
CpKRS_FrAncestor_bulkdock_iter2

>  <name>  (831) 
YFWJNEKEPKHZLJ-UHFFFAOYSA-N-P30

$$$$
WKXVHDOWNWGMEQ-UHFFFAOYSA-N-P38
     RDKit          3D

 15 15  0  0  0  0  0  0  0  0999 V2000
    3.4793  -16.1001   28.1218 C   0  0  0  0  0  0  0  0  0  0  0  0
    2.9436  -15.0356   27.2180 C   0  0  0  0  0  0  0  0  0  0  0  0
    1.6373  -14.6027   27.3464 C   0  0  0  0  0  0  0  0  0  0  0  0
    1.1927  -13.5913   26.5073 C   0  0  0  0  0  0  0  0  0  0  0  0
    2.0622  -13.0212   25.5679 C   0  0  0  0  0  0  0  0  0  0  0  0
    1.3294  -11.5527   24.6217 Br  0  0  0  0  0  0  0  0  0  0  0  0
    3.3628  -13.5223   25.4674 C   0  0  0  0  0  0  0  0  0  0  0  0
    4.4982  -13.0017   24.5611 C   0  0  0  0  0  0  0  0  0  0  0  0
    5.5798  -13.3230   24.8556 O   0  0  0  0  0  0  0  0  0  0  0  0
    4.0020  -12.1002   23.4133 N   0  0  0  0  0  0  0  0  0  0  0  0
    4.7368  -11.3291   22.4458 C   0  0  0  0  0  0  0  0  0  0  0  0
    4.5915   -9.8158   22.6666 C   0  0  0  0  0  0  0  0  0  0  0  0
    5.1745   -9.3535   24.0022 C   0  0  0  0  0  0  0  0  0  0  0  0
    5.2743   -9.0638   21.5298 C   0  0  0  0  0  0  0  0  0  0  0  0
    3.7858  -14.5233   26.2971 N   0  0  0  0  0  0  0  0  0  0  0  0
  1  2  1  0
  2  3  2  0
  3  4  1  0
  4  5  2  0
  5  6  1  0
  5  7  1  0
  7  8  1  0
  8  9  2  0
  8 10  1  0
 10 11  1  0
 11 12  1  0
 12 13  1  0
 12 14  1  0
  7 15  2  0
 15  2  1  0
M  END
>  <inchikey>  (832) 
WKXVHDOWNWGMEQ-UHFFFAOYSA-N

>  <tags>  (832) 
fragmenstein_placed,CpKRS_FrAncestor_bulkdock_iter2

>  <ref_pdb>  (832) 
x0485c

>  <energy_score>  (832) 
-0.331012

>  <distance_score>  (832) 
0.400187

>  <HIPPO Pose ID>  (832) 
56875

>  <ref_mols>  (832) 
x0555a

>  <smiles>  (832) 
Cc1ccc(Br)c(C(=O)NCC(C)C)n1

>  <HIPPO Compound ID>  (832) 
34613

>  <alias>  (832) 
WKXVHDOWNWGMEQ-UHFFFAOYSA-N-P38

>  <subsites>  (832) 


>  <placement_batch>  (832) 
CpKRS_FrAncestor_bulkdock_iter2

>  <name>  (832) 
WKXVHDOWNWGMEQ-UHFFFAOYSA-N-P38

$$$$
UCEIMLCPBLDHLV-UHFFFAOYSA-N-P30
     RDKit          3D

 17 18  0  0  0  0  0  0  0  0999 V2000
    5.7800   -6.9557   25.0094 C   0  0  0  0  0  0  0  0  0  0  0  0
    5.3886   -8.1818   24.2466 C   0  0  0  0  0  0  0  0  0  0  0  0
    5.6385   -8.2490   22.8848 C   0  0  0  0  0  0  0  0  0  0  0  0
    5.4302   -9.4486   22.2295 C   0  0  0  0  0  0  0  0  0  0  0  0
    4.9770  -10.5463   22.9522 C   0  0  0  0  0  0  0  0  0  0  0  0
    4.5503  -12.0747   21.9683 Br  0  0  0  0  0  0  0  0  0  0  0  0
    4.7034  -10.3966   24.3064 C   0  0  0  0  0  0  0  0  0  0  0  0
    4.1798  -11.4102   25.0911 N   0  0  0  0  0  0  0  0  0  0  0  0
    4.5565  -12.9078   25.1808 C   0  0  0  0  0  0  0  0  0  0  0  0
    5.3133  -13.5359   24.5532 O   0  0  0  0  0  0  0  0  0  0  0  0
    3.7215  -13.6380   26.1791 C   0  0  0  0  0  0  0  0  0  0  0  0
    2.3962  -13.2910   26.4279 C   0  0  0  0  0  0  0  0  0  0  0  0
    1.7019  -14.0405   27.3578 C   0  0  0  0  0  0  0  0  0  0  0  0
    2.2128  -15.0912   28.0318 N   0  0  0  0  0  0  0  0  0  0  0  0
    3.4849  -15.4323   27.7268 C   0  0  0  0  0  0  0  0  0  0  0  0
    4.2710  -14.7488   26.8189 C   0  0  0  0  0  0  0  0  0  0  0  0
    4.8571   -9.2138   24.9435 N   0  0  0  0  0  0  0  0  0  0  0  0
  1  2  1  0
  2  3  2  0
  3  4  1  0
  4  5  2  0
  5  6  1  0
  5  7  1  0
  7  8  1  0
  8  9  1  0
  9 10  2  0
  9 11  1  0
 11 12  2  0
 12 13  1  0
 13 14  2  0
 14 15  1  0
 15 16  2  0
  7 17  2  0
 17  2  1  0
 16 11  1  0
M  END
>  <inchikey>  (833) 
UCEIMLCPBLDHLV-UHFFFAOYSA-N

>  <tags>  (833) 
fragmenstein_placed,CpKRS_FrAncestor_bulkdock_iter2

>  <ref_pdb>  (833) 
x0485c

>  <energy_score>  (833) 
-3.521696

>  <distance_score>  (833) 
0.358216

>  <HIPPO Pose ID>  (833) 
56876

>  <ref_mols>  (833) 
x0485a

>  <smiles>  (833) 
Cc1ccc(Br)c(NC(=O)c2ccncc2)n1

>  <HIPPO Compound ID>  (833) 
34614

>  <alias>  (833) 
UCEIMLCPBLDHLV-UHFFFAOYSA-N-P30

>  <subsites>  (833) 


>  <placement_batch>  (833) 
CpKRS_FrAncestor_bulkdock_iter2

>  <name>  (833) 
UCEIMLCPBLDHLV-UHFFFAOYSA-N-P30

$$$$
FWIHSNDBRTYBCF-UHFFFAOYSA-N-P30
     RDKit          3D

 17 18  0  0  0  0  0  0  0  0999 V2000
    5.8245   -6.8395   24.8830 C   0  0  0  0  0  0  0  0  0  0  0  0
    5.3735   -8.0818   24.1815 C   0  0  0  0  0  0  0  0  0  0  0  0
    5.6250   -8.2524   22.8218 C   0  0  0  0  0  0  0  0  0  0  0  0
    5.3916   -9.4795   22.2174 C   0  0  0  0  0  0  0  0  0  0  0  0
    4.9088  -10.5480   22.9733 C   0  0  0  0  0  0  0  0  0  0  0  0
    4.5121  -12.1136   22.0296 Br  0  0  0  0  0  0  0  0  0  0  0  0
    4.5964  -10.3808   24.3220 C   0  0  0  0  0  0  0  0  0  0  0  0
    4.1204  -11.3962   25.1538 N   0  0  0  0  0  0  0  0  0  0  0  0
    4.5121  -12.8983   25.2386 C   0  0  0  0  0  0  0  0  0  0  0  0
    5.3456  -13.4958   24.6789 O   0  0  0  0  0  0  0  0  0  0  0  0
    3.6555  -13.6444   26.1957 C   0  0  0  0  0  0  0  0  0  0  0  0
    2.3236  -13.3307   26.4171 C   0  0  0  0  0  0  0  0  0  0  0  0
    1.6528  -14.0700   27.3652 C   0  0  0  0  0  0  0  0  0  0  0  0
    2.2157  -15.0724   28.0702 N   0  0  0  0  0  0  0  0  0  0  0  0
    3.5033  -15.4123   27.8175 N   0  0  0  0  0  0  0  0  0  0  0  0
    4.1967  -14.7178   26.8835 C   0  0  0  0  0  0  0  0  0  0  0  0
    4.7766   -9.1215   24.9002 C   0  0  0  0  0  0  0  0  0  0  0  0
  1  2  1  0
  2  3  2  0
  3  4  1  0
  4  5  2  0
  5  6  1  0
  5  7  1  0
  7  8  1  0
  8  9  1  0
  9 10  2  0
  9 11  1  0
 11 12  2  0
 12 13  1  0
 13 14  2  0
 14 15  1  0
 15 16  2  0
  7 17  2  0
 17  2  1  0
 16 11  1  0
M  END
>  <inchikey>  (834) 
FWIHSNDBRTYBCF-UHFFFAOYSA-N

>  <tags>  (834) 
fragmenstein_placed,CpKRS_FrAncestor_bulkdock_iter2

>  <ref_pdb>  (834) 
x0485c

>  <energy_score>  (834) 
-0.930806

>  <distance_score>  (834) 
0.337362

>  <HIPPO Pose ID>  (834) 
56879

>  <ref_mols>  (834) 
x0485a

>  <smiles>  (834) 
Cc1ccc(Br)c(NC(=O)c2ccnnc2)c1

>  <HIPPO Compound ID>  (834) 
34615

>  <alias>  (834) 
FWIHSNDBRTYBCF-UHFFFAOYSA-N-P30

>  <subsites>  (834) 


>  <placement_batch>  (834) 
CpKRS_FrAncestor_bulkdock_iter2

>  <name>  (834) 
FWIHSNDBRTYBCF-UHFFFAOYSA-N-P30

$$$$
YWAQPCXYZOOVDL-UHFFFAOYSA-N-P30
     RDKit          3D

 17 18  0  0  0  0  0  0  0  0999 V2000
    4.7182  -12.2434   22.1595 C   0  0  0  0  0  0  0  0  0  0  0  0
    4.9380  -10.9263   22.8330 C   0  0  0  0  0  0  0  0  0  0  0  0
    5.4006   -9.8550   22.0625 C   0  0  0  0  0  0  0  0  0  0  0  0
    5.6123   -8.6201   22.6492 C   0  0  0  0  0  0  0  0  0  0  0  0
    5.3431   -8.4931   23.9961 C   0  0  0  0  0  0  0  0  0  0  0  0
    5.8180   -6.8842   24.8588 Br  0  0  0  0  0  0  0  0  0  0  0  0
    4.7979   -9.4685   24.7467 N   0  0  0  0  0  0  0  0  0  0  0  0
    4.6684  -10.6835   24.1779 C   0  0  0  0  0  0  0  0  0  0  0  0
    4.1775  -11.6530   25.0264 N   0  0  0  0  0  0  0  0  0  0  0  0
    4.5636  -13.1379   25.1807 C   0  0  0  0  0  0  0  0  0  0  0  0
    5.3026  -13.7941   24.5636 O   0  0  0  0  0  0  0  0  0  0  0  0
    3.7608  -13.8110   26.2430 C   0  0  0  0  0  0  0  0  0  0  0  0
    4.3262  -14.8886   26.9213 C   0  0  0  0  0  0  0  0  0  0  0  0
    3.5608  -15.5259   27.8786 C   0  0  0  0  0  0  0  0  0  0  0  0
    2.2956  -15.1708   28.1964 N   0  0  0  0  0  0  0  0  0  0  0  0
    1.7689  -14.1513   27.4888 C   0  0  0  0  0  0  0  0  0  0  0  0
    2.4410  -13.4501   26.5073 C   0  0  0  0  0  0  0  0  0  0  0  0
  1  2  1  0
  2  3  2  0
  3  4  1  0
  4  5  2  0
  5  6  1  0
  5  7  1  0
  7  8  2  0
  8  9  1  0
  9 10  1  0
 10 11  2  0
 10 12  1  0
 12 13  2  0
 13 14  1  0
 14 15  2  0
 15 16  1  0
 16 17  2  0
  8  2  1  0
 17 12  1  0
M  END
>  <inchikey>  (835) 
YWAQPCXYZOOVDL-UHFFFAOYSA-N

>  <tags>  (835) 
fragmenstein_placed,CpKRS_FrAncestor_bulkdock_iter2

>  <ref_pdb>  (835) 
x0485c

>  <energy_score>  (835) 
-12.079046

>  <distance_score>  (835) 
0.321849

>  <HIPPO Pose ID>  (835) 
56882

>  <ref_mols>  (835) 
x0485a

>  <smiles>  (835) 
Cc1ccc(Br)nc1NC(=O)c1ccncc1

>  <HIPPO Compound ID>  (835) 
34616

>  <alias>  (835) 
YWAQPCXYZOOVDL-UHFFFAOYSA-N-P30

>  <subsites>  (835) 


>  <placement_batch>  (835) 
CpKRS_FrAncestor_bulkdock_iter2

>  <name>  (835) 
YWAQPCXYZOOVDL-UHFFFAOYSA-N-P30

$$$$
FYSQDMPDYSVVSU-UHFFFAOYSA-N-P45
     RDKit          3D

 16 17  0  0  0  0  0  0  0  0999 V2000
    3.8559  -16.0523   27.6575 C   0  0  0  0  0  0  0  0  0  0  0  0
    2.6132  -15.4163   27.0597 C   0  0  1  0  0  0  0  0  0  0  0  0
    1.7184  -14.7543   28.1035 C   0  0  0  0  0  0  0  0  0  0  0  0
    0.8783  -13.8028   27.2646 C   0  0  0  0  0  0  0  0  0  0  0  0
    1.9019  -13.1547   26.3702 C   0  0  0  0  0  0  0  0  0  0  0  0
    2.8231  -14.3191   25.9961 C   0  0  1  0  0  0  0  0  0  0  0  0
    4.2635  -13.9876   25.6784 C   0  0  0  0  0  0  0  0  0  0  0  0
    4.3447  -12.7462   24.9915 N   0  0  0  0  0  0  0  0  0  0  0  0
    4.8298  -12.4229   23.5853 C   0  0  0  0  0  0  0  0  0  0  0  0
    5.1719  -13.1246   22.7276 O   0  0  0  0  0  0  0  0  0  0  0  0
    4.8175  -10.9924   23.4453 C   0  0  0  0  0  0  0  0  0  0  0  0
    5.1382  -10.1692   22.4002 C   0  0  0  0  0  0  0  0  0  0  0  0
    4.9929   -8.9022   22.9541 C   0  0  0  0  0  0  0  0  0  0  0  0
    5.3403   -7.3660   22.0167 Br  0  0  0  0  0  0  0  0  0  0  0  0
    4.5907   -8.8991   24.2193 N   0  0  0  0  0  0  0  0  0  0  0  0
    4.4616  -10.2351   24.5271 O   0  0  0  0  0  0  0  0  0  0  0  0
  2  1  1  1
  2  3  1  0
  3  4  1  0
  4  5  1  0
  5  6  1  0
  6  7  1  1
  7  8  1  0
  8  9  1  0
  9 10  2  0
  9 11  1  0
 11 12  2  0
 12 13  1  0
 13 14  1  0
 13 15  2  0
 15 16  1  0
  6  2  1  0
 16 11  1  0
M  END
>  <inchikey>  (836) 
FYSQDMPDYSVVSU-UHFFFAOYSA-N

>  <tags>  (836) 
fragmenstein_placed,CpKRS_FrAncestor_bulkdock_iter2

>  <ref_pdb>  (836) 
x0485c

>  <energy_score>  (836) 
-5.468801

>  <distance_score>  (836) 
0.934184

>  <HIPPO Pose ID>  (836) 
56885

>  <ref_mols>  (836) 
x0502a

>  <smiles>  (836) 
CC1CCCC1CNC(=O)c1cc(Br)no1

>  <HIPPO Compound ID>  (836) 
34617

>  <alias>  (836) 
FYSQDMPDYSVVSU-UHFFFAOYSA-N-P45

>  <subsites>  (836) 


>  <placement_batch>  (836) 
CpKRS_FrAncestor_bulkdock_iter2

>  <name>  (836) 
FYSQDMPDYSVVSU-UHFFFAOYSA-N-P45

$$$$
MYTSPIYJYUUERC-UHFFFAOYSA-N-P44
     RDKit          3D

 17 18  0  0  0  0  0  0  0  0999 V2000
  -10.0406  -14.4639   48.8306 C   0  0  0  0  0  0  0  0  0  0  0  0
   -9.7984  -12.9964   48.5153 C   0  0  1  0  0  0  0  0  0  0  0  0
   -8.4024  -12.5376   48.9453 C   0  0  0  0  0  0  0  0  0  0  0  0
   -8.0632  -11.3461   48.0536 C   0  0  0  0  0  0  0  0  0  0  0  0
   -9.1665  -11.2659   47.0039 C   0  0  0  0  0  0  0  0  0  0  0  0
   -9.8456  -12.6383   47.0221 C   0  0  2  0  0  0  0  0  0  0  0  0
  -11.2470  -12.5753   46.4143 C   0  0  0  0  0  0  0  0  0  0  0  0
  -11.6529  -13.8230   45.8179 N   0  0  0  0  0  0  0  0  0  0  0  0
  -11.5889  -14.2995   44.3568 C   0  0  0  0  0  0  0  0  0  0  0  0
  -11.1284  -13.7904   43.4167 O   0  0  0  0  0  0  0  0  0  0  0  0
  -12.2483  -15.5931   44.2157 C   0  0  0  0  0  0  0  0  0  0  0  0
  -13.2631  -16.1945   44.9441 C   0  0  0  0  0  0  0  0  0  0  0  0
  -13.4825  -17.4389   44.3337 C   0  0  0  0  0  0  0  0  0  0  0  0
  -14.6059  -18.6064   44.8180 Cl  0  0  0  0  0  0  0  0  0  0  0  0
  -12.6914  -17.6343   43.2854 N   0  0  0  0  0  0  0  0  0  0  0  0
  -11.9929  -16.4869   43.1969 N   0  0  0  0  0  0  0  0  0  0  0  0
  -11.1005  -16.3147   42.0750 C   0  0  0  0  0  0  0  0  0  0  0  0
  2  1  1  6
  2  3  1  0
  3  4  1  0
  4  5  1  0
  5  6  1  0
  6  7  1  1
  7  8  1  0
  8  9  1  0
  9 10  2  0
  9 11  1  0
 11 12  2  0
 12 13  1  0
 13 14  1  0
 13 15  2  0
 15 16  1  0
 16 17  1  0
  6  2  1  0
 16 11  1  0
M  END
>  <inchikey>  (837) 
MYTSPIYJYUUERC-UHFFFAOYSA-N

>  <tags>  (837) 
fragmenstein_placed,CpKRS_FrAncestor_bulkdock_iter2

>  <ref_pdb>  (837) 
x0485c

>  <energy_score>  (837) 
-13.10013

>  <distance_score>  (837) 
0.9098

>  <HIPPO Pose ID>  (837) 
56889

>  <ref_mols>  (837) 
x0502b

>  <smiles>  (837) 
CC1CCCC1CNC(=O)c1cc(Cl)nn1C

>  <HIPPO Compound ID>  (837) 
34618

>  <alias>  (837) 
MYTSPIYJYUUERC-UHFFFAOYSA-N-P44

>  <subsites>  (837) 


>  <placement_batch>  (837) 
CpKRS_FrAncestor_bulkdock_iter2

>  <name>  (837) 
MYTSPIYJYUUERC-UHFFFAOYSA-N-P44

$$$$
UMJQGELPACAGHG-UHFFFAOYSA-N-P44
     RDKit          3D

 16 17  0  0  0  0  0  0  0  0999 V2000
   -9.9844  -14.4247   48.8647 C   0  0  0  0  0  0  0  0  0  0  0  0
   -9.6810  -12.9586   48.5998 C   0  0  1  0  0  0  0  0  0  0  0  0
   -8.2857  -12.5587   49.0866 C   0  0  0  0  0  0  0  0  0  0  0  0
   -7.8782  -11.3556   48.2390 C   0  0  0  0  0  0  0  0  0  0  0  0
   -8.9445  -11.2089   47.1593 C   0  0  0  0  0  0  0  0  0  0  0  0
   -9.6613  -12.5599   47.1179 C   0  0  2  0  0  0  0  0  0  0  0  0
  -11.0310  -12.4396   46.4612 C   0  0  0  0  0  0  0  0  0  0  0  0
  -11.4733  -13.6546   45.8305 N   0  0  0  0  0  0  0  0  0  0  0  0
  -12.7214  -13.9412   44.9787 C   0  0  0  0  0  0  0  0  0  0  0  0
  -13.6288  -13.2598   44.7161 O   0  0  0  0  0  0  0  0  0  0  0  0
  -12.6842  -15.3027   44.4704 C   0  0  0  0  0  0  0  0  0  0  0  0
  -13.6184  -16.0215   43.7580 C   0  0  0  0  0  0  0  0  0  0  0  0
  -13.0187  -17.2724   43.5692 C   0  0  0  0  0  0  0  0  0  0  0  0
  -13.7140  -18.5918   42.7719 Cl  0  0  0  0  0  0  0  0  0  0  0  0
  -11.7944  -17.3346   44.0983 N   0  0  0  0  0  0  0  0  0  0  0  0
  -11.5799  -16.0839   44.6614 O   0  0  0  0  0  0  0  0  0  0  0  0
  2  1  1  6
  2  3  1  0
  3  4  1  0
  4  5  1  0
  5  6  1  0
  6  7  1  1
  7  8  1  0
  8  9  1  0
  9 10  2  0
  9 11  1  0
 11 12  2  0
 12 13  1  0
 13 14  1  0
 13 15  2  0
 15 16  1  0
  6  2  1  0
 16 11  1  0
M  END
>  <inchikey>  (838) 
UMJQGELPACAGHG-UHFFFAOYSA-N

>  <tags>  (838) 
fragmenstein_placed,CpKRS_FrAncestor_bulkdock_iter2

>  <ref_pdb>  (838) 
x0485c

>  <energy_score>  (838) 
-17.558894

>  <distance_score>  (838) 
0.800066

>  <HIPPO Pose ID>  (838) 
56892

>  <ref_mols>  (838) 
x0502b

>  <smiles>  (838) 
CC1CCCC1CNC(=O)c1cc(Cl)no1

>  <HIPPO Compound ID>  (838) 
34619

>  <alias>  (838) 
UMJQGELPACAGHG-UHFFFAOYSA-N-P44

>  <subsites>  (838) 


>  <placement_batch>  (838) 
CpKRS_FrAncestor_bulkdock_iter2

>  <name>  (838) 
UMJQGELPACAGHG-UHFFFAOYSA-N-P44

$$$$
DNKYABHYLFFLEY-UHFFFAOYSA-N-P46
     RDKit          3D

 16 17  0  0  0  0  0  0  0  0999 V2000
    2.5722   -9.7655   24.4357 C   0  0  0  0  0  0  0  0  0  0  0  0
    3.5555   -9.3171   23.3845 C   0  0  1  0  0  0  0  0  0  0  0  0
    4.7634   -8.5699   23.9270 C   0  0  0  0  0  0  0  0  0  0  0  0
    5.6660   -8.4441   22.7021 C   0  0  0  0  0  0  0  0  0  0  0  0
    5.1599   -9.4798   21.6896 C   0  0  0  0  0  0  0  0  0  0  0  0
    4.1866  -10.3755   22.4672 C   0  0  1  0  0  0  0  0  0  0  0  0
    4.9604  -11.5341   23.0986 C   0  0  0  0  0  0  0  0  0  0  0  0
    4.2330  -12.2955   24.0645 N   0  0  0  0  0  0  0  0  0  0  0  0
    4.7147  -13.3504   25.0719 C   0  0  0  0  0  0  0  0  0  0  0  0
    5.7910  -13.7120   25.3288 O   0  0  0  0  0  0  0  0  0  0  0  0
    3.5946  -13.8682   25.8571 C   0  0  0  0  0  0  0  0  0  0  0  0
    3.6555  -14.7877   26.8877 C   0  0  0  0  0  0  0  0  0  0  0  0
    2.4193  -14.8306   27.5714 C   0  0  0  0  0  0  0  0  0  0  0  0
    2.1941  -15.6555   29.0357 Cl  0  0  0  0  0  0  0  0  0  0  0  0
    1.4083  -14.1284   27.0722 N   0  0  0  0  0  0  0  0  0  0  0  0
    1.9844  -13.2988   25.7606 S   0  0  0  0  0  0  0  0  0  0  0  0
  2  1  1  1
  2  3  1  0
  3  4  1  0
  4  5  1  0
  5  6  1  0
  6  7  1  1
  7  8  1  0
  8  9  1  0
  9 10  2  0
  9 11  1  0
 11 12  2  0
 12 13  1  0
 13 14  1  0
 13 15  2  0
 15 16  1  0
  6  2  1  0
 16 11  1  0
M  END
>  <inchikey>  (839) 
DNKYABHYLFFLEY-UHFFFAOYSA-N

>  <tags>  (839) 
fragmenstein_placed,CpKRS_FrAncestor_bulkdock_iter2

>  <ref_pdb>  (839) 
x0485c

>  <energy_score>  (839) 
-9.432411

>  <distance_score>  (839) 
0.63373

>  <HIPPO Pose ID>  (839) 
56896

>  <ref_mols>  (839) 
x0502c

>  <smiles>  (839) 
CC1CCCC1CNC(=O)c1cc(Cl)ns1

>  <HIPPO Compound ID>  (839) 
34620

>  <alias>  (839) 
DNKYABHYLFFLEY-UHFFFAOYSA-N-P46

>  <subsites>  (839) 


>  <placement_batch>  (839) 
CpKRS_FrAncestor_bulkdock_iter2

>  <name>  (839) 
DNKYABHYLFFLEY-UHFFFAOYSA-N-P46

$$$$
FZLBVLGXGUTHSG-UHFFFAOYSA-N-P44
     RDKit          3D

 16 17  0  0  0  0  0  0  0  0999 V2000
   -9.9067  -14.2214   49.4011 C   0  0  0  0  0  0  0  0  0  0  0  0
   -9.5193  -13.3276   48.2387 C   0  0  2  0  0  0  0  0  0  0  0  0
   -8.2791  -12.4767   48.5281 C   0  0  0  0  0  0  0  0  0  0  0  0
   -8.3321  -11.3427   47.5001 C   0  0  0  0  0  0  0  0  0  0  0  0
   -9.7326  -11.3977   46.8818 C   0  0  0  0  0  0  0  0  0  0  0  0
  -10.5363  -12.2414   47.8733 C   0  0  1  0  0  0  0  0  0  0  0  0
  -11.9124  -12.6757   47.3866 C   0  0  0  0  0  0  0  0  0  0  0  0
  -11.9360  -13.7231   46.4067 N   0  0  0  0  0  0  0  0  0  0  0  0
  -12.4268  -13.7168   44.9486 C   0  0  0  0  0  0  0  0  0  0  0  0
  -12.8183  -12.8412   44.2878 O   0  0  0  0  0  0  0  0  0  0  0  0
  -12.4524  -15.0952   44.4320 C   0  0  0  0  0  0  0  0  0  0  0  0
  -11.7121  -16.2098   44.8111 C   0  0  0  0  0  0  0  0  0  0  0  0
  -12.1623  -17.3296   44.0774 C   0  0  0  0  0  0  0  0  0  0  0  0
  -13.1404  -16.8847   43.2237 C   0  0  0  0  0  0  0  0  0  0  0  0
  -13.2924  -15.5349   43.4187 N   0  0  0  0  0  0  0  0  0  0  0  0
  -14.2462  -14.7177   42.6968 C   0  0  0  0  0  0  0  0  0  0  0  0
  2  1  1  1
  2  3  1  0
  3  4  1  0
  4  5  1  0
  5  6  1  0
  6  7  1  6
  7  8  1  0
  8  9  1  0
  9 10  2  0
  9 11  1  0
 11 12  2  0
 12 13  1  0
 13 14  2  0
 14 15  1  0
 15 16  1  0
  6  2  1  0
 15 11  1  0
M  END
>  <inchikey>  (840) 
FZLBVLGXGUTHSG-UHFFFAOYSA-N

>  <tags>  (840) 
fragmenstein_placed,CpKRS_FrAncestor_bulkdock_iter2

>  <ref_pdb>  (840) 
x0485c

>  <energy_score>  (840) 
-1.460935

>  <distance_score>  (840) 
0.905374

>  <HIPPO Pose ID>  (840) 
56898

>  <ref_mols>  (840) 
x0502b

>  <smiles>  (840) 
CC1CCCC1CNC(=O)c1cccn1C

>  <HIPPO Compound ID>  (840) 
34621

>  <alias>  (840) 
FZLBVLGXGUTHSG-UHFFFAOYSA-N-P44

>  <subsites>  (840) 


>  <placement_batch>  (840) 
CpKRS_FrAncestor_bulkdock_iter2

>  <name>  (840) 
FZLBVLGXGUTHSG-UHFFFAOYSA-N-P44

$$$$
WCKGAVLIWASSDZ-UHFFFAOYSA-N-P44
     RDKit          3D

 20 21  0  0  0  0  0  0  0  0999 V2000
  -13.6467  -15.2620   41.9715 C   0  0  0  0  0  0  0  0  0  0  0  0
  -13.6593  -15.5841   43.4675 C   0  0  1  0  0  0  0  0  0  0  0  0
  -13.7953  -17.0849   43.7174 C   0  0  0  0  0  0  0  0  0  0  0  0
  -12.3787  -17.6343   43.6158 C   0  0  0  0  0  0  0  0  0  0  0  0
  -11.4372  -16.4534   43.8503 C   0  0  0  0  0  0  0  0  0  0  0  0
  -12.3205  -15.2321   44.1411 C   0  0  2  0  0  0  0  0  0  0  0  0
  -12.4831  -15.0079   45.6533 C   0  0  0  0  0  0  0  0  0  0  0  0
  -11.3411  -14.3372   46.2224 N   0  0  0  0  0  0  0  0  0  0  0  0
  -10.9976  -12.8428   46.2984 C   0  0  0  0  0  0  0  0  0  0  0  0
  -11.5432  -11.9199   45.8467 O   0  0  0  0  0  0  0  0  0  0  0  0
   -9.7852  -12.6273   47.0832 C   0  0  0  0  0  0  0  0  0  0  0  0
   -9.2881  -13.2487   48.2312 C   0  0  0  0  0  0  0  0  0  0  0  0
   -9.8281  -14.3739   49.0221 C   0  0  0  0  0  0  0  0  0  0  0  0
  -10.0742  -15.4638   48.2502 F   0  0  0  0  0  0  0  0  0  0  0  0
  -11.0063  -14.0471   49.6131 F   0  0  0  0  0  0  0  0  0  0  0  0
   -8.9917  -14.7719   50.0131 F   0  0  0  0  0  0  0  0  0  0  0  0
   -8.1280  -12.5167   48.5609 C   0  0  0  0  0  0  0  0  0  0  0  0
   -7.8976  -11.5093   47.7229 N   0  0  0  0  0  0  0  0  0  0  0  0
   -8.8938  -11.6082   46.8217 N   0  0  0  0  0  0  0  0  0  0  0  0
   -8.9166  -10.6878   45.7062 C   0  0  0  0  0  0  0  0  0  0  0  0
  2  1  1  6
  2  3  1  0
  3  4  1  0
  4  5  1  0
  5  6  1  0
  6  7  1  1
  7  8  1  0
  8  9  1  0
  9 10  2  0
  9 11  1  0
 11 12  2  0
 12 13  1  0
 13 14  1  0
 13 15  1  0
 13 16  1  0
 12 17  1  0
 17 18  2  0
 18 19  1  0
 19 20  1  0
  6  2  1  0
 19 11  1  0
M  END
>  <inchikey>  (841) 
WCKGAVLIWASSDZ-UHFFFAOYSA-N

>  <tags>  (841) 
fragmenstein_placed,CpKRS_FrAncestor_bulkdock_iter2

>  <ref_pdb>  (841) 
x0485c

>  <energy_score>  (841) 
-17.638204

>  <distance_score>  (841) 
0.338832

>  <HIPPO Pose ID>  (841) 
56901

>  <ref_mols>  (841) 
x0502b

>  <smiles>  (841) 
CC1CCCC1CNC(=O)c1c(C(F)(F)F)cnn1C

>  <HIPPO Compound ID>  (841) 
34622

>  <alias>  (841) 
WCKGAVLIWASSDZ-UHFFFAOYSA-N-P44

>  <subsites>  (841) 


>  <placement_batch>  (841) 
CpKRS_FrAncestor_bulkdock_iter2

>  <name>  (841) 
WCKGAVLIWASSDZ-UHFFFAOYSA-N-P44

$$$$
WSUPXVIJDLHKPN-UHFFFAOYSA-N-P44
     RDKit          3D

 20 21  0  0  0  0  0  0  0  0999 V2000
  -13.7442  -15.2309   42.1102 C   0  0  0  0  0  0  0  0  0  0  0  0
  -13.6942  -15.6287   43.5872 C   0  0  1  0  0  0  0  0  0  0  0  0
  -13.8014  -17.1419   43.7637 C   0  0  0  0  0  0  0  0  0  0  0  0
  -12.3800  -17.6662   43.6041 C   0  0  0  0  0  0  0  0  0  0  0  0
  -11.4475  -16.4758   43.8261 C   0  0  0  0  0  0  0  0  0  0  0  0
  -12.3356  -15.2915   44.2280 C   0  0  2  0  0  0  0  0  0  0  0  0
  -12.4365  -15.1653   45.7576 C   0  0  0  0  0  0  0  0  0  0  0  0
  -11.3113  -14.4529   46.3101 N   0  0  0  0  0  0  0  0  0  0  0  0
  -11.0199  -12.9478   46.3781 C   0  0  0  0  0  0  0  0  0  0  0  0
  -11.6037  -12.0458   45.9315 O   0  0  0  0  0  0  0  0  0  0  0  0
   -9.8006  -12.6804   47.1335 C   0  0  0  0  0  0  0  0  0  0  0  0
   -9.2793  -13.2477   48.3000 C   0  0  0  0  0  0  0  0  0  0  0  0
   -9.8287  -14.3744   49.1259 C   0  0  0  0  0  0  0  0  0  0  0  0
  -10.0230  -15.4955   48.3791 F   0  0  0  0  0  0  0  0  0  0  0  0
  -11.0427  -14.0569   49.6535 F   0  0  0  0  0  0  0  0  0  0  0  0
   -9.0318  -14.7276   50.1665 F   0  0  0  0  0  0  0  0  0  0  0  0
   -8.1373  -12.5556   48.6977 N   0  0  0  0  0  0  0  0  0  0  0  0
   -7.9614  -11.6137   47.8054 C   0  0  0  0  0  0  0  0  0  0  0  0
   -8.9257  -11.6508   46.8443 N   0  0  0  0  0  0  0  0  0  0  0  0
   -8.9902  -10.7631   45.7072 C   0  0  0  0  0  0  0  0  0  0  0  0
  2  1  1  6
  2  3  1  0
  3  4  1  0
  4  5  1  0
  5  6  1  0
  6  7  1  1
  7  8  1  0
  8  9  1  0
  9 10  2  0
  9 11  1  0
 11 12  2  0
 12 13  1  0
 13 14  1  0
 13 15  1  0
 13 16  1  0
 12 17  1  0
 17 18  2  0
 18 19  1  0
 19 20  1  0
  6  2  1  0
 19 11  1  0
M  END
>  <inchikey>  (842) 
WSUPXVIJDLHKPN-UHFFFAOYSA-N

>  <tags>  (842) 
fragmenstein_placed,CpKRS_FrAncestor_bulkdock_iter2

>  <ref_pdb>  (842) 
x0485c

>  <energy_score>  (842) 
-19.005361

>  <distance_score>  (842) 
0.297348

>  <HIPPO Pose ID>  (842) 
56904

>  <ref_mols>  (842) 
x0502b

>  <smiles>  (842) 
CC1CCCC1CNC(=O)c1c(C(F)(F)F)ncn1C

>  <HIPPO Compound ID>  (842) 
34623

>  <alias>  (842) 
WSUPXVIJDLHKPN-UHFFFAOYSA-N-P44

>  <subsites>  (842) 


>  <placement_batch>  (842) 
CpKRS_FrAncestor_bulkdock_iter2

>  <name>  (842) 
WSUPXVIJDLHKPN-UHFFFAOYSA-N-P44

$$$$
VBKBZGGJESNZNH-UHFFFAOYSA-N-P44
     RDKit          3D

 17 18  0  0  0  0  0  0  0  0999 V2000
   -9.9344  -14.4526   48.9992 C   0  0  0  0  0  0  0  0  0  0  0  0
   -9.7211  -12.9922   48.6360 C   0  0  1  0  0  0  0  0  0  0  0  0
   -8.3001  -12.5177   48.9428 C   0  0  0  0  0  0  0  0  0  0  0  0
   -8.0506  -11.3351   48.0113 C   0  0  0  0  0  0  0  0  0  0  0  0
   -9.2229  -11.2977   47.0358 C   0  0  0  0  0  0  0  0  0  0  0  0
   -9.8911  -12.6722   47.1429 C   0  0  2  0  0  0  0  0  0  0  0  0
  -11.3445  -12.6328   46.6685 C   0  0  0  0  0  0  0  0  0  0  0  0
  -11.7311  -13.8256   45.9591 N   0  0  0  0  0  0  0  0  0  0  0  0
  -12.1059  -14.0322   44.4832 C   0  0  0  0  0  0  0  0  0  0  0  0
  -12.2363  -13.2590   43.6228 O   0  0  0  0  0  0  0  0  0  0  0  0
  -12.3872  -15.4429   44.2025 C   0  0  0  0  0  0  0  0  0  0  0  0
  -12.1615  -16.6146   44.9058 C   0  0  0  0  0  0  0  0  0  0  0  0
  -11.4888  -16.8665   46.4405 Cl  0  0  0  0  0  0  0  0  0  0  0  0
  -12.6509  -17.6590   44.1051 C   0  0  0  0  0  0  0  0  0  0  0  0
  -13.1825  -17.2133   42.9708 N   0  0  0  0  0  0  0  0  0  0  0  0
  -13.0030  -15.8771   43.0397 N   0  0  0  0  0  0  0  0  0  0  0  0
  -13.4765  -15.0706   41.9350 C   0  0  0  0  0  0  0  0  0  0  0  0
  2  1  1  6
  2  3  1  0
  3  4  1  0
  4  5  1  0
  5  6  1  0
  6  7  1  1
  7  8  1  0
  8  9  1  0
  9 10  2  0
  9 11  1  0
 11 12  2  0
 12 13  1  0
 12 14  1  0
 14 15  2  0
 15 16  1  0
 16 17  1  0
  6  2  1  0
 16 11  1  0
M  END
>  <inchikey>  (843) 
VBKBZGGJESNZNH-UHFFFAOYSA-N

>  <tags>  (843) 
fragmenstein_placed,CpKRS_FrAncestor_bulkdock_iter2

>  <ref_pdb>  (843) 
x0485c

>  <energy_score>  (843) 
-10.760537

>  <distance_score>  (843) 
0.89112

>  <HIPPO Pose ID>  (843) 
56907

>  <ref_mols>  (843) 
x0502b

>  <smiles>  (843) 
CC1CCCC1CNC(=O)c1c(Cl)cnn1C

>  <HIPPO Compound ID>  (843) 
34624

>  <alias>  (843) 
VBKBZGGJESNZNH-UHFFFAOYSA-N-P44

>  <subsites>  (843) 


>  <placement_batch>  (843) 
CpKRS_FrAncestor_bulkdock_iter2

>  <name>  (843) 
VBKBZGGJESNZNH-UHFFFAOYSA-N-P44

$$$$
MTXRXAJUQYCDQB-UHFFFAOYSA-N-P44
     RDKit          3D

 18 19  0  0  0  0  0  0  0  0999 V2000
  -11.2737  -15.7916   42.2141 C   0  0  0  0  0  0  0  0  0  0  0  0
  -11.5934  -16.3095   43.6169 C   0  0  2  0  0  0  0  0  0  0  0  0
  -12.3804  -17.6266   43.5578 C   0  0  0  0  0  0  0  0  0  0  0  0
  -13.8308  -17.2910   43.8904 C   0  0  0  0  0  0  0  0  0  0  0  0
  -13.9031  -15.7740   43.9541 C   0  0  0  0  0  0  0  0  0  0  0  0
  -12.5015  -15.3323   44.3829 C   0  0  1  0  0  0  0  0  0  0  0  0
  -12.3091  -15.4391   45.9050 C   0  0  0  0  0  0  0  0  0  0  0  0
  -11.2178  -14.6181   46.3719 N   0  0  0  0  0  0  0  0  0  0  0  0
  -11.0435  -13.0894   46.3661 C   0  0  0  0  0  0  0  0  0  0  0  0
  -11.7182  -12.2548   45.9142 O   0  0  0  0  0  0  0  0  0  0  0  0
   -9.8410  -12.6900   47.0937 C   0  0  0  0  0  0  0  0  0  0  0  0
   -9.2179  -13.2233   48.2481 C   0  0  0  0  0  0  0  0  0  0  0  0
   -9.6910  -14.5899   49.1383 Cl  0  0  0  0  0  0  0  0  0  0  0  0
   -8.1780  -12.5006   48.6798 N   0  0  0  0  0  0  0  0  0  0  0  0
   -8.1020  -11.4997   47.7825 N   0  0  0  0  0  0  0  0  0  0  0  0
   -7.1006  -10.4764   47.9643 C   0  0  0  0  0  0  0  0  0  0  0  0
   -9.0689  -11.5784   46.8268 C   0  0  0  0  0  0  0  0  0  0  0  0
   -9.1519  -10.4032   45.5938 Cl  0  0  0  0  0  0  0  0  0  0  0  0
  2  1  1  6
  2  3  1  0
  3  4  1  0
  4  5  1  0
  5  6  1  0
  6  7  1  1
  7  8  1  0
  8  9  1  0
  9 10  2  0
  9 11  1  0
 11 12  1  0
 12 13  1  0
 12 14  2  0
 14 15  1  0
 15 16  1  0
 15 17  1  0
 17 18  1  0
  6  2  1  0
 17 11  2  0
M  END
>  <inchikey>  (844) 
MTXRXAJUQYCDQB-UHFFFAOYSA-N

>  <tags>  (844) 
fragmenstein_placed,CpKRS_FrAncestor_bulkdock_iter2

>  <ref_pdb>  (844) 
x0485c

>  <energy_score>  (844) 
-14.379827

>  <distance_score>  (844) 
0.330008

>  <HIPPO Pose ID>  (844) 
56910

>  <ref_mols>  (844) 
x0502b

>  <smiles>  (844) 
CC1CCCC1CNC(=O)c1c(Cl)nn(C)c1Cl

>  <HIPPO Compound ID>  (844) 
34625

>  <alias>  (844) 
MTXRXAJUQYCDQB-UHFFFAOYSA-N-P44

>  <subsites>  (844) 


>  <placement_batch>  (844) 
CpKRS_FrAncestor_bulkdock_iter2

>  <name>  (844) 
MTXRXAJUQYCDQB-UHFFFAOYSA-N-P44

$$$$
GENYPZCYFFZPIY-UHFFFAOYSA-N-P44
     RDKit          3D

 19 20  0  0  0  0  0  0  0  0999 V2000
  -10.1415  -14.1790   49.0053 C   0  0  0  0  0  0  0  0  0  0  0  0
   -9.2627  -13.2695   48.1642 C   0  0  2  0  0  0  0  0  0  0  0  0
   -8.5207  -12.2340   49.0154 C   0  0  0  0  0  0  0  0  0  0  0  0
   -8.1784  -11.1311   48.0313 C   0  0  0  0  0  0  0  0  0  0  0  0
   -9.4493  -11.0222   47.2074 C   0  0  0  0  0  0  0  0  0  0  0  0
   -9.8985  -12.4755   46.9921 C   0  0  2  0  0  0  0  0  0  0  0  0
  -11.4093  -12.5699   46.7901 C   0  0  0  0  0  0  0  0  0  0  0  0
  -11.7788  -13.7646   46.0750 N   0  0  0  0  0  0  0  0  0  0  0  0
  -12.0895  -13.9806   44.5869 C   0  0  0  0  0  0  0  0  0  0  0  0
  -12.1716  -13.2154   43.7155 O   0  0  0  0  0  0  0  0  0  0  0  0
  -12.3272  -15.3917   44.3217 C   0  0  0  0  0  0  0  0  0  0  0  0
  -11.8799  -16.5313   44.9679 C   0  0  0  0  0  0  0  0  0  0  0  0
  -12.4368  -17.6123   44.2691 C   0  0  0  0  0  0  0  0  0  0  0  0
  -13.1797  -17.2193   43.2379 N   0  0  0  0  0  0  0  0  0  0  0  0
  -13.0799  -15.8551   43.2531 N   0  0  0  0  0  0  0  0  0  0  0  0
  -13.7603  -15.0320   42.2354 C   0  0  0  0  0  0  0  0  0  0  0  0
  -14.5902  -15.7724   41.4444 F   0  0  0  0  0  0  0  0  0  0  0  0
  -12.8820  -14.4261   41.3923 F   0  0  0  0  0  0  0  0  0  0  0  0
  -14.5435  -14.0705   42.7944 F   0  0  0  0  0  0  0  0  0  0  0  0
  2  1  1  1
  2  3  1  0
  3  4  1  0
  4  5  1  0
  5  6  1  0
  6  7  1  1
  7  8  1  0
  8  9  1  0
  9 10  2  0
  9 11  1  0
 11 12  2  0
 12 13  1  0
 13 14  2  0
 14 15  1  0
 15 16  1  0
 16 17  1  0
 16 18  1  0
 16 19  1  0
  6  2  1  0
 15 11  1  0
M  END
>  <inchikey>  (845) 
GENYPZCYFFZPIY-UHFFFAOYSA-N

>  <tags>  (845) 
fragmenstein_placed,CpKRS_FrAncestor_bulkdock_iter2

>  <ref_pdb>  (845) 
x0485c

>  <energy_score>  (845) 
-8.901936

>  <distance_score>  (845) 
0.821686

>  <HIPPO Pose ID>  (845) 
56916

>  <ref_mols>  (845) 
x0502b

>  <smiles>  (845) 
CC1CCCC1CNC(=O)c1ccnn1C(F)(F)F

>  <HIPPO Compound ID>  (845) 
34627

>  <alias>  (845) 
GENYPZCYFFZPIY-UHFFFAOYSA-N-P44

>  <subsites>  (845) 


>  <placement_batch>  (845) 
CpKRS_FrAncestor_bulkdock_iter2

>  <name>  (845) 
GENYPZCYFFZPIY-UHFFFAOYSA-N-P44

$$$$
GGHSTNLOHDOCRW-UHFFFAOYSA-N-P46
     RDKit          3D

 16 17  0  0  0  0  0  0  0  0999 V2000
    4.2111  -15.8437   26.8388 C   0  0  0  0  0  0  0  0  0  0  0  0
    3.4199  -14.5508   26.9138 C   0  0  2  0  0  0  0  0  0  0  0  0
    1.9993  -14.7477   27.4084 C   0  0  0  0  0  0  0  0  0  0  0  0
    1.2507  -13.4844   26.9862 C   0  0  0  0  0  0  0  0  0  0  0  0
    2.0931  -12.8082   25.8991 C   0  0  0  0  0  0  0  0  0  0  0  0
    3.2141  -13.7966   25.6019 C   0  0  1  0  0  0  0  0  0  0  0  0
    4.5123  -13.3274   24.9584 C   0  0  0  0  0  0  0  0  0  0  0  0
    4.5264  -12.0239   24.3615 N   0  0  0  0  0  0  0  0  0  0  0  0
    3.8327  -11.4987   23.0996 C   0  0  0  0  0  0  0  0  0  0  0  0
    3.0772  -12.0166   22.3838 O   0  0  0  0  0  0  0  0  0  0  0  0
    4.3472  -10.1819   22.8242 C   0  0  0  0  0  0  0  0  0  0  0  0
    4.9547   -9.7329   21.6689 C   0  0  0  0  0  0  0  0  0  0  0  0
    5.3829   -8.4352   21.9658 C   0  0  0  0  0  0  0  0  0  0  0  0
    5.0811   -8.0786   23.2124 N   0  0  0  0  0  0  0  0  0  0  0  0
    4.3159   -9.0918   23.6483 N   0  0  0  0  0  0  0  0  0  0  0  0
    3.5231   -8.8823   24.8320 C   0  0  0  0  0  0  0  0  0  0  0  0
  2  1  1  6
  2  3  1  0
  3  4  1  0
  4  5  1  0
  5  6  1  0
  6  7  1  1
  7  8  1  0
  8  9  1  0
  9 10  2  0
  9 11  1  0
 11 12  2  0
 12 13  1  0
 13 14  2  0
 14 15  1  0
 15 16  1  0
  6  2  1  0
 15 11  1  0
M  END
>  <inchikey>  (846) 
GGHSTNLOHDOCRW-UHFFFAOYSA-N

>  <tags>  (846) 
fragmenstein_placed,CpKRS_FrAncestor_bulkdock_iter2

>  <ref_pdb>  (846) 
x0485c

>  <energy_score>  (846) 
-18.266514

>  <distance_score>  (846) 
0.625177

>  <HIPPO Pose ID>  (846) 
56920

>  <ref_mols>  (846) 
x0502c

>  <smiles>  (846) 
CC1CCCC1CNC(=O)c1ccnn1C

>  <HIPPO Compound ID>  (846) 
34628

>  <alias>  (846) 
GGHSTNLOHDOCRW-UHFFFAOYSA-N-P46

>  <subsites>  (846) 


>  <placement_batch>  (846) 
CpKRS_FrAncestor_bulkdock_iter2

>  <name>  (846) 
GGHSTNLOHDOCRW-UHFFFAOYSA-N-P46

$$$$
HGGZBUCJGRVPSE-UHFFFAOYSA-N-P44
     RDKit          3D

 15 16  0  0  0  0  0  0  0  0999 V2000
  -13.7189  -15.3559   41.9341 C   0  0  0  0  0  0  0  0  0  0  0  0
  -13.7142  -15.6626   43.4334 C   0  0  1  0  0  0  0  0  0  0  0  0
  -13.8072  -17.1635   43.6995 C   0  0  0  0  0  0  0  0  0  0  0  0
  -12.3760  -17.6744   43.5994 C   0  0  0  0  0  0  0  0  0  0  0  0
  -11.4654  -16.4650   43.8102 C   0  0  0  0  0  0  0  0  0  0  0  0
  -12.3822  -15.2678   44.0958 C   0  0  2  0  0  0  0  0  0  0  0  0
  -12.5421  -15.0377   45.6071 C   0  0  0  0  0  0  0  0  0  0  0  0
  -11.4147  -14.3308   46.1612 N   0  0  0  0  0  0  0  0  0  0  0  0
  -11.0403  -12.8347   46.0986 C   0  0  0  0  0  0  0  0  0  0  0  0
  -11.5439  -11.9534   45.5247 O   0  0  0  0  0  0  0  0  0  0  0  0
   -9.8825  -12.5685   46.9605 C   0  0  0  0  0  0  0  0  0  0  0  0
   -9.2962  -13.2576   48.0094 C   0  0  0  0  0  0  0  0  0  0  0  0
   -8.1871  -12.5282   48.5320 C   0  0  0  0  0  0  0  0  0  0  0  0
   -7.9147  -11.3561   47.9699 N   0  0  0  0  0  0  0  0  0  0  0  0
   -9.0013  -11.1069   46.7426 S   0  0  0  0  0  0  0  0  0  0  0  0
  2  1  1  6
  2  3  1  0
  3  4  1  0
  4  5  1  0
  5  6  1  0
  6  7  1  1
  7  8  1  0
  8  9  1  0
  9 10  2  0
  9 11  1  0
 11 12  2  0
 12 13  1  0
 13 14  2  0
 14 15  1  0
  6  2  1  0
 15 11  1  0
M  END
>  <inchikey>  (847) 
HGGZBUCJGRVPSE-UHFFFAOYSA-N

>  <tags>  (847) 
fragmenstein_placed,CpKRS_FrAncestor_bulkdock_iter2

>  <ref_pdb>  (847) 
x0485c

>  <energy_score>  (847) 
-18.927239

>  <distance_score>  (847) 
0.416705

>  <HIPPO Pose ID>  (847) 
56922

>  <ref_mols>  (847) 
x0502b

>  <smiles>  (847) 
CC1CCCC1CNC(=O)c1ccns1

>  <HIPPO Compound ID>  (847) 
34629

>  <alias>  (847) 
HGGZBUCJGRVPSE-UHFFFAOYSA-N-P44

>  <subsites>  (847) 


>  <placement_batch>  (847) 
CpKRS_FrAncestor_bulkdock_iter2

>  <name>  (847) 
HGGZBUCJGRVPSE-UHFFFAOYSA-N-P44

$$$$
FFFJIBAWCJAQCG-UHFFFAOYSA-N-P44
     RDKit          3D

 17 18  0  0  0  0  0  0  0  0999 V2000
  -10.0593  -14.4534   48.8115 C   0  0  0  0  0  0  0  0  0  0  0  0
   -9.8122  -12.9851   48.5037 C   0  0  1  0  0  0  0  0  0  0  0  0
   -8.4120  -12.5362   48.9309 C   0  0  0  0  0  0  0  0  0  0  0  0
   -8.0684  -11.3430   48.0435 C   0  0  0  0  0  0  0  0  0  0  0  0
   -9.1757  -11.2497   46.9993 C   0  0  0  0  0  0  0  0  0  0  0  0
   -9.8649  -12.6172   47.0127 C   0  0  2  0  0  0  0  0  0  0  0  0
  -11.2698  -12.5381   46.4128 C   0  0  0  0  0  0  0  0  0  0  0  0
  -11.6948  -13.7810   45.8230 N   0  0  0  0  0  0  0  0  0  0  0  0
  -11.5080  -14.3257   44.3965 C   0  0  0  0  0  0  0  0  0  0  0  0
  -10.9149  -13.8901   43.4942 O   0  0  0  0  0  0  0  0  0  0  0  0
  -12.1928  -15.5992   44.2463 C   0  0  0  0  0  0  0  0  0  0  0  0
  -13.1695  -16.2070   44.9983 C   0  0  0  0  0  0  0  0  0  0  0  0
  -13.7212  -15.7223   46.1150 F   0  0  0  0  0  0  0  0  0  0  0  0
  -13.4617  -17.4343   44.4052 C   0  0  0  0  0  0  0  0  0  0  0  0
  -12.7269  -17.6250   43.3100 N   0  0  0  0  0  0  0  0  0  0  0  0
  -11.9951  -16.4910   43.2124 N   0  0  0  0  0  0  0  0  0  0  0  0
  -11.1230  -16.3372   42.0715 C   0  0  0  0  0  0  0  0  0  0  0  0
  2  1  1  6
  2  3  1  0
  3  4  1  0
  4  5  1  0
  5  6  1  0
  6  7  1  1
  7  8  1  0
  8  9  1  0
  9 10  2  0
  9 11  1  0
 11 12  2  0
 12 13  1  0
 12 14  1  0
 14 15  2  0
 15 16  1  0
 16 17  1  0
  6  2  1  0
 16 11  1  0
M  END
>  <inchikey>  (848) 
FFFJIBAWCJAQCG-UHFFFAOYSA-N

>  <tags>  (848) 
fragmenstein_placed,CpKRS_FrAncestor_bulkdock_iter2

>  <ref_pdb>  (848) 
x0485c

>  <energy_score>  (848) 
-6.986974

>  <distance_score>  (848) 
0.932311

>  <HIPPO Pose ID>  (848) 
56925

>  <ref_mols>  (848) 
x0502b

>  <smiles>  (848) 
CC1CCCC1CNC(=O)c1c(F)cnn1C

>  <HIPPO Compound ID>  (848) 
34630

>  <alias>  (848) 
FFFJIBAWCJAQCG-UHFFFAOYSA-N-P44

>  <subsites>  (848) 


>  <placement_batch>  (848) 
CpKRS_FrAncestor_bulkdock_iter2

>  <name>  (848) 
FFFJIBAWCJAQCG-UHFFFAOYSA-N-P44

$$$$
YUXPOUBMGCMMJI-UHFFFAOYSA-N-P46
     RDKit          3D

 16 17  0  0  0  0  0  0  0  0999 V2000
    2.7598   -9.4461   23.6209 C   0  0  0  0  0  0  0  0  0  0  0  0
    4.1838   -9.6909   24.1113 C   0  0  2  0  0  0  0  0  0  0  0  0
    4.9600   -8.3810   24.1888 C   0  0  0  0  0  0  0  0  0  0  0  0
    5.5363   -8.1794   22.7865 C   0  0  0  0  0  0  0  0  0  0  0  0
    5.4496   -9.5281   22.0795 C   0  0  0  0  0  0  0  0  0  0  0  0
    5.0921  -10.5149   23.1850 C   0  0  2  0  0  0  0  0  0  0  0  0
    4.5443  -11.8334   22.6695 C   0  0  0  0  0  0  0  0  0  0  0  0
    3.8995  -12.5617   23.7202 N   0  0  0  0  0  0  0  0  0  0  0  0
    4.4940  -13.3491   24.9030 C   0  0  0  0  0  0  0  0  0  0  0  0
    5.6022  -13.5940   25.1661 O   0  0  0  0  0  0  0  0  0  0  0  0
    3.3854  -13.7318   25.7588 C   0  0  0  0  0  0  0  0  0  0  0  0
    3.2479  -14.5596   26.8493 C   0  0  0  0  0  0  0  0  0  0  0  0
    1.9502  -14.5181   27.3228 N   0  0  0  0  0  0  0  0  0  0  0  0
    1.3533  -13.6812   26.5013 C   0  0  0  0  0  0  0  0  0  0  0  0
   -0.5085  -13.2501   26.5540 Br  0  0  0  0  0  0  0  0  0  0  0  0
    2.1525  -13.1694   25.5280 O   0  0  0  0  0  0  0  0  0  0  0  0
  2  1  1  6
  2  3  1  0
  3  4  1  0
  4  5  1  0
  5  6  1  0
  6  7  1  6
  7  8  1  0
  8  9  1  0
  9 10  2  0
  9 11  1  0
 11 12  2  0
 12 13  1  0
 13 14  2  0
 14 15  1  0
 14 16  1  0
  6  2  1  0
 16 11  1  0
M  END
>  <inchikey>  (849) 
YUXPOUBMGCMMJI-UHFFFAOYSA-N

>  <tags>  (849) 
fragmenstein_placed,CpKRS_FrAncestor_bulkdock_iter2

>  <ref_pdb>  (849) 
x0485c

>  <energy_score>  (849) 
-3.170721

>  <distance_score>  (849) 
0.573735

>  <HIPPO Pose ID>  (849) 
56929

>  <ref_mols>  (849) 
x0502c

>  <smiles>  (849) 
CC1CCCC1CNC(=O)c1cnc(Br)o1

>  <HIPPO Compound ID>  (849) 
34631

>  <alias>  (849) 
YUXPOUBMGCMMJI-UHFFFAOYSA-N-P46

>  <subsites>  (849) 


>  <placement_batch>  (849) 
CpKRS_FrAncestor_bulkdock_iter2

>  <name>  (849) 
YUXPOUBMGCMMJI-UHFFFAOYSA-N-P46

$$$$
MQPLGHCFEWQFSF-UHFFFAOYSA-N-P44
     RDKit          3D

 20 21  0  0  0  0  0  0  0  0999 V2000
  -11.1558  -15.7211   42.3928 C   0  0  0  0  0  0  0  0  0  0  0  0
  -11.5946  -16.2393   43.7624 C   0  0  2  0  0  0  0  0  0  0  0  0
  -12.3459  -17.5735   43.6350 C   0  0  0  0  0  0  0  0  0  0  0  0
  -13.8193  -17.2769   43.8942 C   0  0  0  0  0  0  0  0  0  0  0  0
  -13.9372  -15.7618   43.9059 C   0  0  0  0  0  0  0  0  0  0  0  0
  -12.5853  -15.2725   44.4318 C   0  0  1  0  0  0  0  0  0  0  0  0
  -12.5121  -15.3394   45.9662 C   0  0  0  0  0  0  0  0  0  0  0  0
  -11.4470  -14.5244   46.5009 N   0  0  0  0  0  0  0  0  0  0  0  0
  -11.2410  -13.0018   46.4658 C   0  0  0  0  0  0  0  0  0  0  0  0
  -11.9345  -12.1556   46.0677 O   0  0  0  0  0  0  0  0  0  0  0  0
   -9.9827  -12.6388   47.1109 C   0  0  0  0  0  0  0  0  0  0  0  0
   -9.2642  -13.2589   48.1155 C   0  0  0  0  0  0  0  0  0  0  0  0
   -8.1957  -12.5006   48.5159 N   0  0  0  0  0  0  0  0  0  0  0  0
   -8.2182  -11.4108   47.7652 C   0  0  0  0  0  0  0  0  0  0  0  0
   -7.2921  -10.2394   47.8377 C   0  0  0  0  0  0  0  0  0  0  0  0
   -6.6113  -10.0527   46.6735 F   0  0  0  0  0  0  0  0  0  0  0  0
   -6.3569  -10.3480   48.8166 F   0  0  0  0  0  0  0  0  0  0  0  0
   -7.9657   -9.0793   48.0692 F   0  0  0  0  0  0  0  0  0  0  0  0
   -9.2710  -11.4733   46.8756 N   0  0  0  0  0  0  0  0  0  0  0  0
   -9.6079  -10.4856   45.8724 C   0  0  0  0  0  0  0  0  0  0  0  0
  2  1  1  6
  2  3  1  0
  3  4  1  0
  4  5  1  0
  5  6  1  0
  6  7  1  1
  7  8  1  0
  8  9  1  0
  9 10  2  0
  9 11  1  0
 11 12  2  0
 12 13  1  0
 13 14  2  0
 14 15  1  0
 15 16  1  0
 15 17  1  0
 15 18  1  0
 14 19  1  0
 19 20  1  0
  6  2  1  0
 19 11  1  0
M  END
>  <inchikey>  (850) 
MQPLGHCFEWQFSF-UHFFFAOYSA-N

>  <tags>  (850) 
fragmenstein_placed,CpKRS_FrAncestor_bulkdock_iter2

>  <ref_pdb>  (850) 
x0485c

>  <energy_score>  (850) 
-7.60001

>  <distance_score>  (850) 
0.3696

>  <HIPPO Pose ID>  (850) 
56931

>  <ref_mols>  (850) 
x0502b

>  <smiles>  (850) 
CC1CCCC1CNC(=O)c1cnc(C(F)(F)F)n1C

>  <HIPPO Compound ID>  (850) 
34632

>  <alias>  (850) 
MQPLGHCFEWQFSF-UHFFFAOYSA-N-P44

>  <subsites>  (850) 


>  <placement_batch>  (850) 
CpKRS_FrAncestor_bulkdock_iter2

>  <name>  (850) 
MQPLGHCFEWQFSF-UHFFFAOYSA-N-P44

$$$$
KSCOHIXVVZJKDL-UHFFFAOYSA-N-P44
     RDKit          3D

 19 20  0  0  0  0  0  0  0  0999 V2000
  -14.5340  -14.5843   44.1683 C   0  0  0  0  0  0  0  0  0  0  0  0
  -13.1806  -15.2638   44.0360 C   0  0  2  0  0  0  0  0  0  0  0  0
  -13.0973  -16.1703   42.8037 C   0  0  0  0  0  0  0  0  0  0  0  0
  -11.9826  -17.1703   43.1116 C   0  0  0  0  0  0  0  0  0  0  0  0
  -11.6540  -16.9978   44.5923 C   0  0  0  0  0  0  0  0  0  0  0  0
  -12.8526  -16.2461   45.1639 C   0  0  1  0  0  0  0  0  0  0  0  0
  -12.6542  -15.6809   46.5688 C   0  0  0  0  0  0  0  0  0  0  0  0
  -11.5064  -14.8389   46.7811 N   0  0  0  0  0  0  0  0  0  0  0  0
  -11.2985  -13.3362   46.4949 C   0  0  0  0  0  0  0  0  0  0  0  0
  -11.9972  -12.5631   45.9718 O   0  0  0  0  0  0  0  0  0  0  0  0
  -10.0434  -12.8809   47.0902 C   0  0  0  0  0  0  0  0  0  0  0  0
   -9.2321  -13.3484   48.1035 C   0  0  0  0  0  0  0  0  0  0  0  0
   -8.2030  -12.4719   48.3492 N   0  0  0  0  0  0  0  0  0  0  0  0
   -8.3885  -11.5045   47.4631 C   0  0  0  0  0  0  0  0  0  0  0  0
   -7.5930  -10.2637   47.2105 C   0  0  0  0  0  0  0  0  0  0  0  0
   -7.3281  -10.0708   45.8885 F   0  0  0  0  0  0  0  0  0  0  0  0
   -6.3823  -10.2772   47.8369 F   0  0  0  0  0  0  0  0  0  0  0  0
   -8.2323   -9.1421   47.6433 F   0  0  0  0  0  0  0  0  0  0  0  0
   -9.5015  -11.6846   46.6765 O   0  0  0  0  0  0  0  0  0  0  0  0
  2  1  1  1
  2  3  1  0
  3  4  1  0
  4  5  1  0
  5  6  1  0
  6  7  1  1
  7  8  1  0
  8  9  1  0
  9 10  2  0
  9 11  1  0
 11 12  2  0
 12 13  1  0
 13 14  2  0
 14 15  1  0
 15 16  1  0
 15 17  1  0
 15 18  1  0
 14 19  1  0
  6  2  1  0
 19 11  1  0
M  END
>  <inchikey>  (851) 
KSCOHIXVVZJKDL-UHFFFAOYSA-N

>  <tags>  (851) 
fragmenstein_placed,CpKRS_FrAncestor_bulkdock_iter2

>  <ref_pdb>  (851) 
x0485c

>  <energy_score>  (851) 
-11.020966

>  <distance_score>  (851) 
0.761292

>  <HIPPO Pose ID>  (851) 
56934

>  <ref_mols>  (851) 
x0502b

>  <smiles>  (851) 
CC1CCCC1CNC(=O)c1cnc(C(F)(F)F)o1

>  <HIPPO Compound ID>  (851) 
34633

>  <alias>  (851) 
KSCOHIXVVZJKDL-UHFFFAOYSA-N-P44

>  <subsites>  (851) 


>  <placement_batch>  (851) 
CpKRS_FrAncestor_bulkdock_iter2

>  <name>  (851) 
KSCOHIXVVZJKDL-UHFFFAOYSA-N-P44

$$$$
SYAOCWLNABFNJB-UHFFFAOYSA-N-P44
     RDKit          3D

 17 18  0  0  0  0  0  0  0  0999 V2000
  -11.2339  -15.7774   42.2737 C   0  0  0  0  0  0  0  0  0  0  0  0
  -11.6143  -16.2798   43.6667 C   0  0  2  0  0  0  0  0  0  0  0  0
  -12.3762  -17.6110   43.5882 C   0  0  0  0  0  0  0  0  0  0  0  0
  -13.8409  -17.3006   43.8799 C   0  0  0  0  0  0  0  0  0  0  0  0
  -13.9472  -15.7845   43.8983 C   0  0  0  0  0  0  0  0  0  0  0  0
  -12.5728  -15.3034   44.3692 C   0  0  1  0  0  0  0  0  0  0  0  0
  -12.4419  -15.3631   45.8997 C   0  0  0  0  0  0  0  0  0  0  0  0
  -11.3191  -14.5957   46.3834 N   0  0  0  0  0  0  0  0  0  0  0  0
  -11.0125  -13.0934   46.2688 C   0  0  0  0  0  0  0  0  0  0  0  0
  -11.5778  -12.2490   45.7002 O   0  0  0  0  0  0  0  0  0  0  0  0
   -9.8438  -12.7449   47.0669 C   0  0  0  0  0  0  0  0  0  0  0  0
   -9.3373  -13.2906   48.2374 C   0  0  0  0  0  0  0  0  0  0  0  0
   -8.2799  -12.5665   48.7265 N   0  0  0  0  0  0  0  0  0  0  0  0
   -8.1216  -11.6002   47.8609 C   0  0  0  0  0  0  0  0  0  0  0  0
   -6.9740  -10.3497   47.9957 Cl  0  0  0  0  0  0  0  0  0  0  0  0
   -9.0040  -11.6668   46.8233 N   0  0  0  0  0  0  0  0  0  0  0  0
   -9.0646  -10.8012   45.6695 C   0  0  0  0  0  0  0  0  0  0  0  0
  2  1  1  6
  2  3  1  0
  3  4  1  0
  4  5  1  0
  5  6  1  0
  6  7  1  1
  7  8  1  0
  8  9  1  0
  9 10  2  0
  9 11  1  0
 11 12  2  0
 12 13  1  0
 13 14  2  0
 14 15  1  0
 14 16  1  0
 16 17  1  0
  6  2  1  0
 16 11  1  0
M  END
>  <inchikey>  (852) 
SYAOCWLNABFNJB-UHFFFAOYSA-N

>  <tags>  (852) 
fragmenstein_placed,CpKRS_FrAncestor_bulkdock_iter2

>  <ref_pdb>  (852) 
x0485c

>  <energy_score>  (852) 
-18.291559

>  <distance_score>  (852) 
0.360779

>  <HIPPO Pose ID>  (852) 
56937

>  <ref_mols>  (852) 
x0502b

>  <smiles>  (852) 
CC1CCCC1CNC(=O)c1cnc(Cl)n1C

>  <HIPPO Compound ID>  (852) 
34634

>  <alias>  (852) 
SYAOCWLNABFNJB-UHFFFAOYSA-N-P44

>  <subsites>  (852) 


>  <placement_batch>  (852) 
CpKRS_FrAncestor_bulkdock_iter2

>  <name>  (852) 
SYAOCWLNABFNJB-UHFFFAOYSA-N-P44

$$$$
WJXHMBWMWYAIJQ-UHFFFAOYSA-N-P44
     RDKit          3D

 16 17  0  0  0  0  0  0  0  0999 V2000
  -11.1955  -15.4196   42.6072 C   0  0  0  0  0  0  0  0  0  0  0  0
  -11.6461  -16.1812   43.8536 C   0  0  2  0  0  0  0  0  0  0  0  0
  -12.2839  -17.5234   43.4814 C   0  0  0  0  0  0  0  0  0  0  0  0
  -13.7763  -17.2506   43.3099 C   0  0  0  0  0  0  0  0  0  0  0  0
  -14.0268  -15.8536   43.8697 C   0  0  0  0  0  0  0  0  0  0  0  0
  -12.7639  -15.5027   44.6596 C   0  0  2  0  0  0  0  0  0  0  0  0
  -12.6396  -14.0035   44.8970 C   0  0  0  0  0  0  0  0  0  0  0  0
  -11.5133  -13.6497   45.7190 N   0  0  0  0  0  0  0  0  0  0  0  0
  -10.5220  -12.4836   45.6042 C   0  0  0  0  0  0  0  0  0  0  0  0
  -10.4106  -11.6660   44.7828 O   0  0  0  0  0  0  0  0  0  0  0  0
   -9.6368  -12.4265   46.7539 C   0  0  0  0  0  0  0  0  0  0  0  0
   -9.4928  -13.1485   47.9285 C   0  0  0  0  0  0  0  0  0  0  0  0
   -8.4999  -12.6281   48.7302 N   0  0  0  0  0  0  0  0  0  0  0  0
   -8.0208  -11.6328   48.0358 C   0  0  0  0  0  0  0  0  0  0  0  0
   -6.7628  -10.5802   48.4579 Cl  0  0  0  0  0  0  0  0  0  0  0  0
   -8.6532  -11.4628   46.8515 N   0  0  0  0  0  0  0  0  0  0  0  0
  2  1  1  6
  2  3  1  0
  3  4  1  0
  4  5  1  0
  5  6  1  0
  6  7  1  6
  7  8  1  0
  8  9  1  0
  9 10  2  0
  9 11  1  0
 11 12  2  0
 12 13  1  0
 13 14  2  0
 14 15  1  0
 14 16  1  0
  6  2  1  0
 16 11  1  0
M  END
>  <inchikey>  (853) 
WJXHMBWMWYAIJQ-UHFFFAOYSA-N

>  <tags>  (853) 
fragmenstein_placed,CpKRS_FrAncestor_bulkdock_iter2

>  <ref_pdb>  (853) 
x0485c

>  <energy_score>  (853) 
-6.115275

>  <distance_score>  (853) 
0.93815

>  <HIPPO Pose ID>  (853) 
56940

>  <ref_mols>  (853) 
x0502b

>  <smiles>  (853) 
CC1CCCC1CNC(=O)c1cnc(Cl)[nH]1

>  <HIPPO Compound ID>  (853) 
34635

>  <alias>  (853) 
WJXHMBWMWYAIJQ-UHFFFAOYSA-N-P44

>  <subsites>  (853) 


>  <placement_batch>  (853) 
CpKRS_FrAncestor_bulkdock_iter2

>  <name>  (853) 
WJXHMBWMWYAIJQ-UHFFFAOYSA-N-P44

$$$$
QEJYANPXSZMMQQ-UHFFFAOYSA-N-P44
     RDKit          3D

 16 17  0  0  0  0  0  0  0  0999 V2000
  -13.5346  -15.3455   41.8866 C   0  0  0  0  0  0  0  0  0  0  0  0
  -13.6488  -15.6150   43.3888 C   0  0  1  0  0  0  0  0  0  0  0  0
  -13.7876  -17.1074   43.6834 C   0  0  0  0  0  0  0  0  0  0  0  0
  -12.3621  -17.6422   43.6886 C   0  0  0  0  0  0  0  0  0  0  0  0
  -11.4512  -16.4455   43.9617 C   0  0  0  0  0  0  0  0  0  0  0  0
  -12.3631  -15.2241   44.1406 C   0  0  2  0  0  0  0  0  0  0  0  0
  -12.6385  -14.9414   45.6268 C   0  0  0  0  0  0  0  0  0  0  0  0
  -11.5465  -14.2517   46.2671 N   0  0  0  0  0  0  0  0  0  0  0  0
  -11.0306  -12.8142   46.0880 C   0  0  0  0  0  0  0  0  0  0  0  0
  -11.4525  -11.9347   45.4517 O   0  0  0  0  0  0  0  0  0  0  0  0
   -9.8766  -12.5708   46.9493 C   0  0  0  0  0  0  0  0  0  0  0  0
   -9.4523  -13.1683   48.1266 C   0  0  0  0  0  0  0  0  0  0  0  0
   -8.3479  -12.5440   48.6512 N   0  0  0  0  0  0  0  0  0  0  0  0
   -8.0674  -11.5858   47.8024 C   0  0  0  0  0  0  0  0  0  0  0  0
   -8.9485  -11.5643   46.7607 N   0  0  0  0  0  0  0  0  0  0  0  0
   -8.8833  -10.6501   45.6460 C   0  0  0  0  0  0  0  0  0  0  0  0
  2  1  1  6
  2  3  1  0
  3  4  1  0
  4  5  1  0
  5  6  1  0
  6  7  1  1
  7  8  1  0
  8  9  1  0
  9 10  2  0
  9 11  1  0
 11 12  2  0
 12 13  1  0
 13 14  2  0
 14 15  1  0
 15 16  1  0
  6  2  1  0
 15 11  1  0
M  END
>  <inchikey>  (854) 
QEJYANPXSZMMQQ-UHFFFAOYSA-N

>  <tags>  (854) 
fragmenstein_placed,CpKRS_FrAncestor_bulkdock_iter2

>  <ref_pdb>  (854) 
x0485c

>  <energy_score>  (854) 
-12.403605

>  <distance_score>  (854) 
0.430049

>  <HIPPO Pose ID>  (854) 
56943

>  <ref_mols>  (854) 
x0502b

>  <smiles>  (854) 
CC1CCCC1CNC(=O)c1cncn1C

>  <HIPPO Compound ID>  (854) 
34636

>  <alias>  (854) 
QEJYANPXSZMMQQ-UHFFFAOYSA-N-P44

>  <subsites>  (854) 


>  <placement_batch>  (854) 
CpKRS_FrAncestor_bulkdock_iter2

>  <name>  (854) 
QEJYANPXSZMMQQ-UHFFFAOYSA-N-P44

$$$$
BXHUUZZWBVLWIP-UHFFFAOYSA-N-P44
     RDKit          3D

 17 18  0  0  0  0  0  0  0  0999 V2000
  -13.5949  -15.2923   41.9842 C   0  0  0  0  0  0  0  0  0  0  0  0
  -13.6361  -15.5912   43.4846 C   0  0  1  0  0  0  0  0  0  0  0  0
  -13.7907  -17.0865   43.7556 C   0  0  0  0  0  0  0  0  0  0  0  0
  -12.3787  -17.6498   43.6762 C   0  0  0  0  0  0  0  0  0  0  0  0
  -11.4303  -16.4778   43.9265 C   0  0  0  0  0  0  0  0  0  0  0  0
  -12.3048  -15.2415   44.1753 C   0  0  2  0  0  0  0  0  0  0  0  0
  -12.4937  -14.9807   45.6795 C   0  0  0  0  0  0  0  0  0  0  0  0
  -11.3616  -14.3084   46.2672 N   0  0  0  0  0  0  0  0  0  0  0  0
  -10.8538  -12.8684   46.0916 C   0  0  0  0  0  0  0  0  0  0  0  0
  -11.2232  -12.0183   45.3859 O   0  0  0  0  0  0  0  0  0  0  0  0
   -9.7384  -12.5708   46.9997 C   0  0  0  0  0  0  0  0  0  0  0  0
   -8.9161  -11.4604   46.8584 C   0  0  0  0  0  0  0  0  0  0  0  0
   -8.0321  -11.4885   47.8900 N   0  0  0  0  0  0  0  0  0  0  0  0
   -6.9798  -10.5400   48.1589 C   0  0  0  0  0  0  0  0  0  0  0  0
   -8.2266  -12.5120   48.7319 N   0  0  0  0  0  0  0  0  0  0  0  0
   -9.2411  -13.1836   48.1766 C   0  0  0  0  0  0  0  0  0  0  0  0
   -9.8108  -14.5808   48.9550 Cl  0  0  0  0  0  0  0  0  0  0  0  0
  2  1  1  6
  2  3  1  0
  3  4  1  0
  4  5  1  0
  5  6  1  0
  6  7  1  1
  7  8  1  0
  8  9  1  0
  9 10  2  0
  9 11  1  0
 11 12  2  0
 12 13  1  0
 13 14  1  0
 13 15  1  0
 15 16  2  0
 16 17  1  0
  6  2  1  0
 16 11  1  0
M  END
>  <inchikey>  (855) 
BXHUUZZWBVLWIP-UHFFFAOYSA-N

>  <tags>  (855) 
fragmenstein_placed,CpKRS_FrAncestor_bulkdock_iter2

>  <ref_pdb>  (855) 
x0485c

>  <energy_score>  (855) 
-13.384266

>  <distance_score>  (855) 
0.396827

>  <HIPPO Pose ID>  (855) 
56946

>  <ref_mols>  (855) 
x0502b

>  <smiles>  (855) 
CC1CCCC1CNC(=O)c1cn(C)nc1Cl

>  <HIPPO Compound ID>  (855) 
34637

>  <alias>  (855) 
BXHUUZZWBVLWIP-UHFFFAOYSA-N-P44

>  <subsites>  (855) 


>  <placement_batch>  (855) 
CpKRS_FrAncestor_bulkdock_iter2

>  <name>  (855) 
BXHUUZZWBVLWIP-UHFFFAOYSA-N-P44

$$$$
VRLUILUFONEZNN-UHFFFAOYSA-N-P44
     RDKit          3D

 15 16  0  0  0  0  0  0  0  0999 V2000
  -14.9647  -14.8965   43.6497 C   0  0  0  0  0  0  0  0  0  0  0  0
  -13.6862  -15.6704   43.3717 C   0  0  2  0  0  0  0  0  0  0  0  0
  -13.7954  -17.1465   43.7395 C   0  0  0  0  0  0  0  0  0  0  0  0
  -12.3546  -17.6353   43.7273 C   0  0  0  0  0  0  0  0  0  0  0  0
  -11.4784  -16.4032   43.9585 C   0  0  0  0  0  0  0  0  0  0  0  0
  -12.4270  -15.2054   44.1274 C   0  0  2  0  0  0  0  0  0  0  0  0
  -12.6503  -14.8679   45.6102 C   0  0  0  0  0  0  0  0  0  0  0  0
  -11.4930  -14.2589   46.2204 N   0  0  0  0  0  0  0  0  0  0  0  0
  -10.8098  -12.9108   45.9409 C   0  0  0  0  0  0  0  0  0  0  0  0
  -11.0251  -12.1106   45.1218 O   0  0  0  0  0  0  0  0  0  0  0  0
   -9.7772  -12.6275   46.9240 C   0  0  0  0  0  0  0  0  0  0  0  0
   -9.3115  -13.2506   48.0668 C   0  0  0  0  0  0  0  0  0  0  0  0
   -8.3271  -12.5106   48.6808 N   0  0  0  0  0  0  0  0  0  0  0  0
   -8.1510  -11.4668   47.9076 C   0  0  0  0  0  0  0  0  0  0  0  0
   -8.9950  -11.4941   46.8401 N   0  0  0  0  0  0  0  0  0  0  0  0
  2  1  1  1
  2  3  1  0
  3  4  1  0
  4  5  1  0
  5  6  1  0
  6  7  1  1
  7  8  1  0
  8  9  1  0
  9 10  2  0
  9 11  1  0
 11 12  2  0
 12 13  1  0
 13 14  2  0
 14 15  1  0
  6  2  1  0
 15 11  1  0
M  END
>  <inchikey>  (856) 
VRLUILUFONEZNN-UHFFFAOYSA-N

>  <tags>  (856) 
fragmenstein_placed,CpKRS_FrAncestor_bulkdock_iter2

>  <ref_pdb>  (856) 
x0485c

>  <energy_score>  (856) 
-26.473675

>  <distance_score>  (856) 
0.48603

>  <HIPPO Pose ID>  (856) 
56949

>  <ref_mols>  (856) 
x0502b

>  <smiles>  (856) 
CC1CCCC1CNC(=O)c1cnc[nH]1

>  <HIPPO Compound ID>  (856) 
34638

>  <alias>  (856) 
VRLUILUFONEZNN-UHFFFAOYSA-N-P44

>  <subsites>  (856) 


>  <placement_batch>  (856) 
CpKRS_FrAncestor_bulkdock_iter2

>  <name>  (856) 
VRLUILUFONEZNN-UHFFFAOYSA-N-P44

$$$$
MMURUMMJRFQCQQ-UHFFFAOYSA-N-P44
     RDKit          3D

 15 16  0  0  0  0  0  0  0  0999 V2000
  -13.3670  -15.3747   41.7800 C   0  0  0  0  0  0  0  0  0  0  0  0
  -13.5634  -15.5722   43.2850 C   0  0  1  0  0  0  0  0  0  0  0  0
  -13.7812  -17.0430   43.6363 C   0  0  0  0  0  0  0  0  0  0  0  0
  -12.3821  -17.6362   43.7225 C   0  0  0  0  0  0  0  0  0  0  0  0
  -11.4358  -16.4699   44.0064 C   0  0  0  0  0  0  0  0  0  0  0  0
  -12.2977  -15.2018   44.0806 C   0  0  2  0  0  0  0  0  0  0  0  0
  -12.6338  -14.8314   45.5340 C   0  0  0  0  0  0  0  0  0  0  0  0
  -11.5376  -14.1846   46.2118 N   0  0  0  0  0  0  0  0  0  0  0  0
  -10.9167  -12.7844   46.0067 C   0  0  0  0  0  0  0  0  0  0  0  0
  -11.2439  -11.9074   45.3105 O   0  0  0  0  0  0  0  0  0  0  0  0
   -9.8057  -12.5716   46.9343 C   0  0  0  0  0  0  0  0  0  0  0  0
   -9.2589  -13.2597   48.0007 C   0  0  0  0  0  0  0  0  0  0  0  0
   -8.2365  -12.5403   48.5741 N   0  0  0  0  0  0  0  0  0  0  0  0
   -8.1684  -11.4672   47.8238 C   0  0  0  0  0  0  0  0  0  0  0  0
   -9.0815  -11.4015   46.8224 O   0  0  0  0  0  0  0  0  0  0  0  0
  2  1  1  6
  2  3  1  0
  3  4  1  0
  4  5  1  0
  5  6  1  0
  6  7  1  1
  7  8  1  0
  8  9  1  0
  9 10  2  0
  9 11  1  0
 11 12  2  0
 12 13  1  0
 13 14  2  0
 14 15  1  0
  6  2  1  0
 15 11  1  0
M  END
>  <inchikey>  (857) 
MMURUMMJRFQCQQ-UHFFFAOYSA-N

>  <tags>  (857) 
fragmenstein_placed,CpKRS_FrAncestor_bulkdock_iter2

>  <ref_pdb>  (857) 
x0485c

>  <energy_score>  (857) 
-8.321812

>  <distance_score>  (857) 
0.475904

>  <HIPPO Pose ID>  (857) 
56952

>  <ref_mols>  (857) 
x0502b

>  <smiles>  (857) 
CC1CCCC1CNC(=O)c1cnco1

>  <HIPPO Compound ID>  (857) 
34639

>  <alias>  (857) 
MMURUMMJRFQCQQ-UHFFFAOYSA-N-P44

>  <subsites>  (857) 


>  <placement_batch>  (857) 
CpKRS_FrAncestor_bulkdock_iter2

>  <name>  (857) 
MMURUMMJRFQCQQ-UHFFFAOYSA-N-P44

$$$$
SISQEDGWBFFXHV-UHFFFAOYSA-N-P44
     RDKit          3D

 17 18  0  0  0  0  0  0  0  0999 V2000
  -14.9778  -14.8853   43.7037 C   0  0  0  0  0  0  0  0  0  0  0  0
  -13.6792  -15.6314   43.4440 C   0  0  2  0  0  0  0  0  0  0  0  0
  -13.7687  -17.1146   43.7895 C   0  0  0  0  0  0  0  0  0  0  0  0
  -12.3190  -17.5770   43.8063 C   0  0  0  0  0  0  0  0  0  0  0  0
  -11.4712  -16.3293   44.0599 C   0  0  0  0  0  0  0  0  0  0  0  0
  -12.4450  -15.1530   44.2328 C   0  0  2  0  0  0  0  0  0  0  0  0
  -12.7023  -14.8470   45.7173 C   0  0  0  0  0  0  0  0  0  0  0  0
  -11.5842  -14.1917   46.3510 N   0  0  0  0  0  0  0  0  0  0  0  0
  -11.0117  -12.7786   46.1535 C   0  0  0  0  0  0  0  0  0  0  0  0
  -11.3974  -11.8919   45.5041 O   0  0  0  0  0  0  0  0  0  0  0  0
   -9.8360  -12.5478   46.9975 C   0  0  0  0  0  0  0  0  0  0  0  0
   -8.9586  -11.4351   46.8864 C   0  0  0  0  0  0  0  0  0  0  0  0
   -7.9884  -11.4212   47.8061 N   0  0  0  0  0  0  0  0  0  0  0  0
   -8.2070  -12.5578   48.5024 N   0  0  0  0  0  0  0  0  0  0  0  0
   -7.3188  -12.8889   49.5926 C   0  0  0  0  0  0  0  0  0  0  0  0
   -9.3173  -13.2311   48.0754 C   0  0  0  0  0  0  0  0  0  0  0  0
   -9.8223  -14.6325   48.9063 Cl  0  0  0  0  0  0  0  0  0  0  0  0
  2  1  1  1
  2  3  1  0
  3  4  1  0
  4  5  1  0
  5  6  1  0
  6  7  1  1
  7  8  1  0
  8  9  1  0
  9 10  2  0
  9 11  1  0
 11 12  1  0
 12 13  2  0
 13 14  1  0
 14 15  1  0
 14 16  1  0
 16 17  1  0
  6  2  1  0
 16 11  2  0
M  END
>  <inchikey>  (858) 
SISQEDGWBFFXHV-UHFFFAOYSA-N

>  <tags>  (858) 
fragmenstein_placed,CpKRS_FrAncestor_bulkdock_iter2

>  <ref_pdb>  (858) 
x0485c

>  <energy_score>  (858) 
-17.455674

>  <distance_score>  (858) 
0.402777

>  <HIPPO Pose ID>  (858) 
56955

>  <ref_mols>  (858) 
x0502b

>  <smiles>  (858) 
CC1CCCC1CNC(=O)c1cnn(C)c1Cl

>  <HIPPO Compound ID>  (858) 
34640

>  <alias>  (858) 
SISQEDGWBFFXHV-UHFFFAOYSA-N-P44

>  <subsites>  (858) 


>  <placement_batch>  (858) 
CpKRS_FrAncestor_bulkdock_iter2

>  <name>  (858) 
SISQEDGWBFFXHV-UHFFFAOYSA-N-P44

$$$$
MYQXNMMZKZQMAI-UHFFFAOYSA-N-P45
     RDKit          3D

 17 18  0  0  0  0  0  0  0  0999 V2000
    6.0364   -9.8037   24.4569 C   0  0  0  0  0  0  0  0  0  0  0  0
    4.5803   -9.6712   24.0578 C   0  0  1  0  0  0  0  0  0  0  0  0
    4.3323   -8.2266   23.6698 C   0  0  0  0  0  0  0  0  0  0  0  0
    4.7633   -8.1296   22.2092 C   0  0  0  0  0  0  0  0  0  0  0  0
    4.8762   -9.5598   21.6883 C   0  0  0  0  0  0  0  0  0  0  0  0
    4.1918  -10.4011   22.7639 C   0  0  1  0  0  0  0  0  0  0  0  0
    4.5206  -11.8836   22.6878 C   0  0  0  0  0  0  0  0  0  0  0  0
    3.8512  -12.6162   23.7249 N   0  0  0  0  0  0  0  0  0  0  0  0
    4.4179  -13.3877   24.9285 C   0  0  0  0  0  0  0  0  0  0  0  0
    5.5194  -13.6161   25.2270 O   0  0  0  0  0  0  0  0  0  0  0  0
    3.3368  -13.7806   25.8374 C   0  0  0  0  0  0  0  0  0  0  0  0
    2.0039  -13.3056   25.9967 C   0  0  0  0  0  0  0  0  0  0  0  0
    1.3499  -13.8500   27.0352 N   0  0  0  0  0  0  0  0  0  0  0  0
    2.3000  -14.6477   27.5766 N   0  0  0  0  0  0  0  0  0  0  0  0
    2.0986  -15.2320   28.8723 C   0  0  0  0  0  0  0  0  0  0  0  0
    3.4528  -14.6930   26.8610 C   0  0  0  0  0  0  0  0  0  0  0  0
    4.5308  -15.4313   27.1674 F   0  0  0  0  0  0  0  0  0  0  0  0
  2  1  1  6
  2  3  1  0
  3  4  1  0
  4  5  1  0
  5  6  1  0
  6  7  1  1
  7  8  1  0
  8  9  1  0
  9 10  2  0
  9 11  1  0
 11 12  1  0
 12 13  2  0
 13 14  1  0
 14 15  1  0
 14 16  1  0
 16 17  1  0
  6  2  1  0
 16 11  2  0
M  END
>  <inchikey>  (859) 
MYQXNMMZKZQMAI-UHFFFAOYSA-N

>  <tags>  (859) 
fragmenstein_placed,CpKRS_FrAncestor_bulkdock_iter2

>  <ref_pdb>  (859) 
x0485c

>  <energy_score>  (859) 
-2.562133

>  <distance_score>  (859) 
0.52267

>  <HIPPO Pose ID>  (859) 
56957

>  <ref_mols>  (859) 
x0502a

>  <smiles>  (859) 
CC1CCCC1CNC(=O)c1cnn(C)c1F

>  <HIPPO Compound ID>  (859) 
34641

>  <alias>  (859) 
MYQXNMMZKZQMAI-UHFFFAOYSA-N-P45

>  <subsites>  (859) 


>  <placement_batch>  (859) 
CpKRS_FrAncestor_bulkdock_iter2

>  <name>  (859) 
MYQXNMMZKZQMAI-UHFFFAOYSA-N-P45

$$$$
CHOWQHWBYBOOQL-UHFFFAOYSA-N-P44
     RDKit          3D

 16 17  0  0  0  0  0  0  0  0999 V2000
  -11.1076  -15.7236   42.4437 C   0  0  0  0  0  0  0  0  0  0  0  0
  -11.6035  -16.2053   43.8070 C   0  0  2  0  0  0  0  0  0  0  0  0
  -12.3417  -17.5474   43.6825 C   0  0  0  0  0  0  0  0  0  0  0  0
  -13.8245  -17.2553   43.8877 C   0  0  0  0  0  0  0  0  0  0  0  0
  -13.9537  -15.7416   43.8413 C   0  0  0  0  0  0  0  0  0  0  0  0
  -12.6265  -15.2237   44.4015 C   0  0  1  0  0  0  0  0  0  0  0  0
  -12.6179  -15.2318   45.9382 C   0  0  0  0  0  0  0  0  0  0  0  0
  -11.5315  -14.4612   46.4945 N   0  0  0  0  0  0  0  0  0  0  0  0
  -11.1973  -12.9646   46.3628 C   0  0  0  0  0  0  0  0  0  0  0  0
  -11.7872  -12.1016   45.8482 O   0  0  0  0  0  0  0  0  0  0  0  0
   -9.9727  -12.6382   47.1005 C   0  0  0  0  0  0  0  0  0  0  0  0
   -9.3328  -13.2793   48.1886 C   0  0  0  0  0  0  0  0  0  0  0  0
   -8.2744  -12.6024   48.6467 N   0  0  0  0  0  0  0  0  0  0  0  0
   -8.2026  -11.5435   47.8244 N   0  0  0  0  0  0  0  0  0  0  0  0
   -7.1608  -10.5659   48.0153 C   0  0  0  0  0  0  0  0  0  0  0  0
   -9.2006  -11.5062   46.8999 C   0  0  0  0  0  0  0  0  0  0  0  0
  2  1  1  6
  2  3  1  0
  3  4  1  0
  4  5  1  0
  5  6  1  0
  6  7  1  1
  7  8  1  0
  8  9  1  0
  9 10  2  0
  9 11  1  0
 11 12  1  0
 12 13  2  0
 13 14  1  0
 14 15  1  0
 14 16  1  0
  6  2  1  0
 16 11  2  0
M  END
>  <inchikey>  (860) 
CHOWQHWBYBOOQL-UHFFFAOYSA-N

>  <tags>  (860) 
fragmenstein_placed,CpKRS_FrAncestor_bulkdock_iter2

>  <ref_pdb>  (860) 
x0485c

>  <energy_score>  (860) 
-18.485027

>  <distance_score>  (860) 
0.361769

>  <HIPPO Pose ID>  (860) 
56961

>  <ref_mols>  (860) 
x0502b

>  <smiles>  (860) 
CC1CCCC1CNC(=O)c1cnn(C)c1

>  <HIPPO Compound ID>  (860) 
34642

>  <alias>  (860) 
CHOWQHWBYBOOQL-UHFFFAOYSA-N-P44

>  <subsites>  (860) 


>  <placement_batch>  (860) 
CpKRS_FrAncestor_bulkdock_iter2

>  <name>  (860) 
CHOWQHWBYBOOQL-UHFFFAOYSA-N-P44

$$$$
JFEJJPDBUPLIGQ-UHFFFAOYSA-N-P44
     RDKit          3D

 16 17  0  0  0  0  0  0  0  0999 V2000
  -11.0722  -15.6958   42.5140 C   0  0  0  0  0  0  0  0  0  0  0  0
  -11.6154  -16.1499   43.8689 C   0  0  2  0  0  0  0  0  0  0  0  0
  -12.3365  -17.5015   43.7461 C   0  0  0  0  0  0  0  0  0  0  0  0
  -13.8279  -17.2190   43.8952 C   0  0  0  0  0  0  0  0  0  0  0  0
  -13.9696  -15.7078   43.8069 C   0  0  0  0  0  0  0  0  0  0  0  0
  -12.6684  -15.1631   44.4010 C   0  0  1  0  0  0  0  0  0  0  0  0
  -12.7173  -15.1296   45.9366 C   0  0  0  0  0  0  0  0  0  0  0  0
  -11.6223  -14.3846   46.5082 N   0  0  0  0  0  0  0  0  0  0  0  0
  -11.2918  -12.8858   46.4406 C   0  0  0  0  0  0  0  0  0  0  0  0
  -11.8908  -12.0010   45.9777 O   0  0  0  0  0  0  0  0  0  0  0  0
  -10.0152  -12.5928   47.0970 C   0  0  0  0  0  0  0  0  0  0  0  0
   -9.2081  -11.4507   46.8369 C   0  0  0  0  0  0  0  0  0  0  0  0
   -8.1051  -11.3930   47.5896 N   0  0  0  0  0  0  0  0  0  0  0  0
   -8.1876  -12.5105   48.3295 N   0  0  0  0  0  0  0  0  0  0  0  0
   -9.3232  -13.2319   48.1057 C   0  0  0  0  0  0  0  0  0  0  0  0
   -9.7696  -14.7799   49.1082 Br  0  0  0  0  0  0  0  0  0  0  0  0
  2  1  1  6
  2  3  1  0
  3  4  1  0
  4  5  1  0
  5  6  1  0
  6  7  1  1
  7  8  1  0
  8  9  1  0
  9 10  2  0
  9 11  1  0
 11 12  1  0
 12 13  2  0
 13 14  1  0
 14 15  1  0
 15 16  1  0
  6  2  1  0
 15 11  2  0
M  END
>  <inchikey>  (861) 
JFEJJPDBUPLIGQ-UHFFFAOYSA-N

>  <tags>  (861) 
fragmenstein_placed,CpKRS_FrAncestor_bulkdock_iter2

>  <ref_pdb>  (861) 
x0485c

>  <energy_score>  (861) 
-20.061429

>  <distance_score>  (861) 
0.387118

>  <HIPPO Pose ID>  (861) 
56964

>  <ref_mols>  (861) 
x0502b

>  <smiles>  (861) 
CC1CCCC1CNC(=O)c1cn[nH]c1Br

>  <HIPPO Compound ID>  (861) 
34643

>  <alias>  (861) 
JFEJJPDBUPLIGQ-UHFFFAOYSA-N-P44

>  <subsites>  (861) 


>  <placement_batch>  (861) 
CpKRS_FrAncestor_bulkdock_iter2

>  <name>  (861) 
JFEJJPDBUPLIGQ-UHFFFAOYSA-N-P44

$$$$
DDYZJCHQOXRASR-UHFFFAOYSA-N-P44
     RDKit          3D

 16 17  0  0  0  0  0  0  0  0999 V2000
  -13.6085  -15.3602   41.9301 C   0  0  0  0  0  0  0  0  0  0  0  0
  -13.6739  -15.6096   43.4387 C   0  0  1  0  0  0  0  0  0  0  0  0
  -13.8002  -17.0981   43.7576 C   0  0  0  0  0  0  0  0  0  0  0  0
  -12.3753  -17.6312   43.7140 C   0  0  0  0  0  0  0  0  0  0  0  0
  -11.4597  -16.4343   43.9686 C   0  0  0  0  0  0  0  0  0  0  0  0
  -12.3653  -15.2061   44.1421 C   0  0  2  0  0  0  0  0  0  0  0  0
  -12.5946  -14.8792   45.6274 C   0  0  0  0  0  0  0  0  0  0  0  0
  -11.4562  -14.2241   46.2200 N   0  0  0  0  0  0  0  0  0  0  0  0
  -10.9388  -12.7852   46.0635 C   0  0  0  0  0  0  0  0  0  0  0  0
  -11.3048  -11.9226   45.3722 O   0  0  0  0  0  0  0  0  0  0  0  0
   -9.7993  -12.5295   46.9441 C   0  0  0  0  0  0  0  0  0  0  0  0
   -8.9278  -11.4074   46.8664 C   0  0  0  0  0  0  0  0  0  0  0  0
   -7.9749  -11.4011   47.8067 N   0  0  0  0  0  0  0  0  0  0  0  0
   -8.2097  -12.5421   48.4803 N   0  0  0  0  0  0  0  0  0  0  0  0
   -9.3036  -13.2103   48.0292 C   0  0  0  0  0  0  0  0  0  0  0  0
   -9.7533  -14.6136   48.8710 Cl  0  0  0  0  0  0  0  0  0  0  0  0
  2  1  1  6
  2  3  1  0
  3  4  1  0
  4  5  1  0
  5  6  1  0
  6  7  1  1
  7  8  1  0
  8  9  1  0
  9 10  2  0
  9 11  1  0
 11 12  1  0
 12 13  2  0
 13 14  1  0
 14 15  1  0
 15 16  1  0
  6  2  1  0
 15 11  2  0
M  END
>  <inchikey>  (862) 
DDYZJCHQOXRASR-UHFFFAOYSA-N

>  <tags>  (862) 
fragmenstein_placed,CpKRS_FrAncestor_bulkdock_iter2

>  <ref_pdb>  (862) 
x0485c

>  <energy_score>  (862) 
-20.196594

>  <distance_score>  (862) 
0.423562

>  <HIPPO Pose ID>  (862) 
56967

>  <ref_mols>  (862) 
x0502b

>  <smiles>  (862) 
CC1CCCC1CNC(=O)c1cn[nH]c1Cl

>  <HIPPO Compound ID>  (862) 
34644

>  <alias>  (862) 
DDYZJCHQOXRASR-UHFFFAOYSA-N-P44

>  <subsites>  (862) 


>  <placement_batch>  (862) 
CpKRS_FrAncestor_bulkdock_iter2

>  <name>  (862) 
DDYZJCHQOXRASR-UHFFFAOYSA-N-P44

$$$$
PFHCWXLSQHDKIU-UHFFFAOYSA-N-P44
     RDKit          3D

 15 16  0  0  0  0  0  0  0  0999 V2000
  -11.1081  -15.7218   42.4506 C   0  0  0  0  0  0  0  0  0  0  0  0
  -11.6070  -16.2016   43.8135 C   0  0  2  0  0  0  0  0  0  0  0  0
  -12.3403  -17.5465   43.6898 C   0  0  0  0  0  0  0  0  0  0  0  0
  -13.8239  -17.2600   43.8966 C   0  0  0  0  0  0  0  0  0  0  0  0
  -13.9595  -15.7471   43.8430 C   0  0  0  0  0  0  0  0  0  0  0  0
  -12.6350  -15.2215   44.4022 C   0  0  1  0  0  0  0  0  0  0  0  0
  -12.6277  -15.2218   45.9391 C   0  0  0  0  0  0  0  0  0  0  0  0
  -11.5397  -14.4496   46.4902 N   0  0  0  0  0  0  0  0  0  0  0  0
  -11.2089  -12.9525   46.3579 C   0  0  0  0  0  0  0  0  0  0  0  0
  -11.8030  -12.0902   45.8471 O   0  0  0  0  0  0  0  0  0  0  0  0
   -9.9754  -12.6272   47.0803 C   0  0  0  0  0  0  0  0  0  0  0  0
   -9.3311  -13.2603   48.1704 C   0  0  0  0  0  0  0  0  0  0  0  0
   -8.2565  -12.5926   48.6029 N   0  0  0  0  0  0  0  0  0  0  0  0
   -8.1794  -11.5496   47.7643 N   0  0  0  0  0  0  0  0  0  0  0  0
   -9.1923  -11.5086   46.8562 C   0  0  0  0  0  0  0  0  0  0  0  0
  2  1  1  6
  2  3  1  0
  3  4  1  0
  4  5  1  0
  5  6  1  0
  6  7  1  1
  7  8  1  0
  8  9  1  0
  9 10  2  0
  9 11  1  0
 11 12  1  0
 12 13  2  0
 13 14  1  0
 14 15  1  0
  6  2  1  0
 15 11  2  0
M  END
>  <inchikey>  (863) 
PFHCWXLSQHDKIU-UHFFFAOYSA-N

>  <tags>  (863) 
fragmenstein_placed,CpKRS_FrAncestor_bulkdock_iter2

>  <ref_pdb>  (863) 
x0485c

>  <energy_score>  (863) 
-7.256137

>  <distance_score>  (863) 
0.366018

>  <HIPPO Pose ID>  (863) 
56970

>  <ref_mols>  (863) 
x0502b

>  <smiles>  (863) 
CC1CCCC1CNC(=O)c1cn[nH]c1

>  <HIPPO Compound ID>  (863) 
34645

>  <alias>  (863) 
PFHCWXLSQHDKIU-UHFFFAOYSA-N-P44

>  <subsites>  (863) 


>  <placement_batch>  (863) 
CpKRS_FrAncestor_bulkdock_iter2

>  <name>  (863) 
PFHCWXLSQHDKIU-UHFFFAOYSA-N-P44

$$$$
SASSMRNDCZKSHQ-UHFFFAOYSA-N-P46
     RDKit          3D

 15 16  0  0  0  0  0  0  0  0999 V2000
    3.3557   -9.0065   24.6832 C   0  0  0  0  0  0  0  0  0  0  0  0
    4.6229   -9.5587   24.0301 C   0  0  2  0  0  0  0  0  0  0  0  0
    5.5590   -8.4246   23.6072 C   0  0  0  0  0  0  0  0  0  0  0  0
    5.2122   -8.1911   22.1483 C   0  0  0  0  0  0  0  0  0  0  0  0
    5.0667   -9.5998   21.6225 C   0  0  0  0  0  0  0  0  0  0  0  0
    4.2855  -10.3168   22.7254 C   0  0  1  0  0  0  0  0  0  0  0  0
    4.6298  -11.7967   22.7572 C   0  0  0  0  0  0  0  0  0  0  0  0
    3.9121  -12.4990   23.7781 N   0  0  0  0  0  0  0  0  0  0  0  0
    4.4237  -13.3287   24.9691 C   0  0  0  0  0  0  0  0  0  0  0  0
    5.5072  -13.6359   25.2646 O   0  0  0  0  0  0  0  0  0  0  0  0
    3.3098  -13.6980   25.8549 C   0  0  0  0  0  0  0  0  0  0  0  0
    3.3249  -14.8220   26.7492 C   0  0  0  0  0  0  0  0  0  0  0  0
    2.2760  -14.9900   27.5543 N   0  0  0  0  0  0  0  0  0  0  0  0
    1.2063  -13.7649   27.2584 S   0  0  0  0  0  0  0  0  0  0  0  0
    2.1236  -13.0059   26.0403 C   0  0  0  0  0  0  0  0  0  0  0  0
  2  1  1  6
  2  3  1  0
  3  4  1  0
  4  5  1  0
  5  6  1  0
  6  7  1  1
  7  8  1  0
  8  9  1  0
  9 10  2  0
  9 11  1  0
 11 12  1  0
 12 13  2  0
 13 14  1  0
 14 15  1  0
  6  2  1  0
 15 11  2  0
M  END
>  <inchikey>  (864) 
SASSMRNDCZKSHQ-UHFFFAOYSA-N

>  <tags>  (864) 
fragmenstein_placed,CpKRS_FrAncestor_bulkdock_iter2

>  <ref_pdb>  (864) 
x0485c

>  <energy_score>  (864) 
-21.461769

>  <distance_score>  (864) 
0.407381

>  <HIPPO Pose ID>  (864) 
56974

>  <ref_mols>  (864) 
x0502c

>  <smiles>  (864) 
CC1CCCC1CNC(=O)c1cnsc1

>  <HIPPO Compound ID>  (864) 
34646

>  <alias>  (864) 
SASSMRNDCZKSHQ-UHFFFAOYSA-N-P46

>  <subsites>  (864) 


>  <placement_batch>  (864) 
CpKRS_FrAncestor_bulkdock_iter2

>  <name>  (864) 
SASSMRNDCZKSHQ-UHFFFAOYSA-N-P46

$$$$
PYKJSVVEZKZFDG-UHFFFAOYSA-N-P46
     RDKit          3D

 15 16  0  0  0  0  0  0  0  0999 V2000
    4.0296  -15.6186   27.0723 C   0  0  0  0  0  0  0  0  0  0  0  0
    2.7082  -14.9941   26.6461 C   0  0  1  0  0  0  0  0  0  0  0  0
    1.8803  -14.4815   27.8153 C   0  0  0  0  0  0  0  0  0  0  0  0
    0.9132  -13.5198   27.1498 C   0  0  0  0  0  0  0  0  0  0  0  0
    1.7820  -12.7564   26.1667 C   0  0  0  0  0  0  0  0  0  0  0  0
    2.7327  -13.8173   25.6219 C   0  0  1  0  0  0  0  0  0  0  0  0
    4.1168  -13.3809   25.1567 C   0  0  0  0  0  0  0  0  0  0  0  0
    4.2512  -12.0678   24.5838 N   0  0  0  0  0  0  0  0  0  0  0  0
    3.9533  -11.5634   23.1665 C   0  0  0  0  0  0  0  0  0  0  0  0
    3.4788  -12.1099   22.2548 O   0  0  0  0  0  0  0  0  0  0  0  0
    4.4841  -10.2027   23.0739 C   0  0  0  0  0  0  0  0  0  0  0  0
    4.6802   -9.4615   21.9317 C   0  0  0  0  0  0  0  0  0  0  0  0
    5.3168   -8.3075   22.2763 O   0  0  0  0  0  0  0  0  0  0  0  0
    5.4756   -8.4111   23.6234 C   0  0  0  0  0  0  0  0  0  0  0  0
    4.9888   -9.5038   24.1658 N   0  0  0  0  0  0  0  0  0  0  0  0
  2  1  1  1
  2  3  1  0
  3  4  1  0
  4  5  1  0
  5  6  1  0
  6  7  1  1
  7  8  1  0
  8  9  1  0
  9 10  2  0
  9 11  1  0
 11 12  2  0
 12 13  1  0
 13 14  1  0
 14 15  2  0
  6  2  1  0
 15 11  1  0
M  END
>  <inchikey>  (865) 
PYKJSVVEZKZFDG-UHFFFAOYSA-N

>  <tags>  (865) 
fragmenstein_placed,CpKRS_FrAncestor_bulkdock_iter2

>  <ref_pdb>  (865) 
x0485c

>  <energy_score>  (865) 
-19.572933

>  <distance_score>  (865) 
0.662651

>  <HIPPO Pose ID>  (865) 
56977

>  <ref_mols>  (865) 
x0502c

>  <smiles>  (865) 
CC1CCCC1CNC(=O)c1cocn1

>  <HIPPO Compound ID>  (865) 
34647

>  <alias>  (865) 
PYKJSVVEZKZFDG-UHFFFAOYSA-N-P46

>  <subsites>  (865) 


>  <placement_batch>  (865) 
CpKRS_FrAncestor_bulkdock_iter2

>  <name>  (865) 
PYKJSVVEZKZFDG-UHFFFAOYSA-N-P46

$$$$
LOVLATCHEFQEEK-UHFFFAOYSA-N-P46
     RDKit          3D

 19 20  0  0  0  0  0  0  0  0999 V2000
    2.4647   -9.7615   24.4347 C   0  0  0  0  0  0  0  0  0  0  0  0
    3.5073   -9.3825   23.4132 C   0  0  1  0  0  0  0  0  0  0  0  0
    4.6857   -8.6016   23.9747 C   0  0  0  0  0  0  0  0  0  0  0  0
    5.6494   -8.5435   22.7935 C   0  0  0  0  0  0  0  0  0  0  0  0
    5.2285   -9.6756   21.8472 C   0  0  0  0  0  0  0  0  0  0  0  0
    4.1833  -10.5039   22.6099 C   0  0  1  0  0  0  0  0  0  0  0  0
    4.8827  -11.6309   23.3811 C   0  0  0  0  0  0  0  0  0  0  0  0
    4.0318  -12.4143   24.2287 N   0  0  0  0  0  0  0  0  0  0  0  0
    4.3761  -13.5110   25.2513 C   0  0  0  0  0  0  0  0  0  0  0  0
    5.3968  -14.0054   25.5119 O   0  0  0  0  0  0  0  0  0  0  0  0
    3.2052  -13.8749   26.0497 C   0  0  0  0  0  0  0  0  0  0  0  0
    1.9881  -13.2412   26.1700 C   0  0  0  0  0  0  0  0  0  0  0  0
    1.2324  -13.8527   27.1103 O   0  0  0  0  0  0  0  0  0  0  0  0
    1.9304  -14.9104   27.6422 N   0  0  0  0  0  0  0  0  0  0  0  0
    3.1127  -14.9382   26.9988 C   0  0  0  0  0  0  0  0  0  0  0  0
    4.1417  -15.9598   27.3365 C   0  0  0  0  0  0  0  0  0  0  0  0
    3.7143  -16.8081   28.3215 F   0  0  0  0  0  0  0  0  0  0  0  0
    5.2957  -15.4246   27.8163 F   0  0  0  0  0  0  0  0  0  0  0  0
    4.4994  -16.7432   26.2909 F   0  0  0  0  0  0  0  0  0  0  0  0
  2  1  1  1
  2  3  1  0
  3  4  1  0
  4  5  1  0
  5  6  1  0
  6  7  1  1
  7  8  1  0
  8  9  1  0
  9 10  2  0
  9 11  1  0
 11 12  2  0
 12 13  1  0
 13 14  1  0
 14 15  2  0
 15 16  1  0
 16 17  1  0
 16 18  1  0
 16 19  1  0
  6  2  1  0
 15 11  1  0
M  END
>  <inchikey>  (866) 
LOVLATCHEFQEEK-UHFFFAOYSA-N

>  <tags>  (866) 
fragmenstein_placed,CpKRS_FrAncestor_bulkdock_iter2

>  <ref_pdb>  (866) 
x0485c

>  <energy_score>  (866) 
-9.25774

>  <distance_score>  (866) 
0.649089

>  <HIPPO Pose ID>  (866) 
56980

>  <ref_mols>  (866) 
x0502c

>  <smiles>  (866) 
CC1CCCC1CNC(=O)c1conc1C(F)(F)F

>  <HIPPO Compound ID>  (866) 
34648

>  <alias>  (866) 
LOVLATCHEFQEEK-UHFFFAOYSA-N-P46

>  <subsites>  (866) 


>  <placement_batch>  (866) 
CpKRS_FrAncestor_bulkdock_iter2

>  <name>  (866) 
LOVLATCHEFQEEK-UHFFFAOYSA-N-P46

$$$$
CSQKZWQGZMAGGL-UHFFFAOYSA-N-P46
     RDKit          3D

 16 17  0  0  0  0  0  0  0  0999 V2000
    4.7450   -8.9078   21.3057 C   0  0  0  0  0  0  0  0  0  0  0  0
    5.6452   -9.4018   22.4210 C   0  0  1  0  0  0  0  0  0  0  0  0
    5.9378   -8.2632   23.4030 C   0  0  0  0  0  0  0  0  0  0  0  0
    4.8877   -8.3712   24.5098 C   0  0  0  0  0  0  0  0  0  0  0  0
    4.0830   -9.6233   24.1989 C   0  0  0  0  0  0  0  0  0  0  0  0
    5.0323  -10.4564   23.3370 C   0  0  1  0  0  0  0  0  0  0  0  0
    4.3708  -11.6584   22.6803 C   0  0  0  0  0  0  0  0  0  0  0  0
    3.7295  -12.4337   23.7043 N   0  0  0  0  0  0  0  0  0  0  0  0
    4.3269  -13.2121   24.8913 C   0  0  0  0  0  0  0  0  0  0  0  0
    5.4364  -13.4106   25.1810 O   0  0  0  0  0  0  0  0  0  0  0  0
    3.2463  -13.6535   25.7881 C   0  0  0  0  0  0  0  0  0  0  0  0
    2.0410  -12.9831   25.9616 C   0  0  0  0  0  0  0  0  0  0  0  0
    1.1421  -13.7269   27.1965 S   0  0  0  0  0  0  0  0  0  0  0  0
    2.2414  -14.9091   27.5272 N   0  0  0  0  0  0  0  0  0  0  0  0
    3.2986  -14.7327   26.7325 C   0  0  0  0  0  0  0  0  0  0  0  0
    4.6174  -15.7876   26.9448 Cl  0  0  0  0  0  0  0  0  0  0  0  0
  2  1  1  6
  2  3  1  0
  3  4  1  0
  4  5  1  0
  5  6  1  0
  6  7  1  6
  7  8  1  0
  8  9  1  0
  9 10  2  0
  9 11  1  0
 11 12  2  0
 12 13  1  0
 13 14  1  0
 14 15  2  0
 15 16  1  0
  6  2  1  0
 15 11  1  0
M  END
>  <inchikey>  (867) 
CSQKZWQGZMAGGL-UHFFFAOYSA-N

>  <tags>  (867) 
fragmenstein_placed,CpKRS_FrAncestor_bulkdock_iter2

>  <ref_pdb>  (867) 
x0485c

>  <energy_score>  (867) 
-17.12038

>  <distance_score>  (867) 
0.568194

>  <HIPPO Pose ID>  (867) 
56986

>  <ref_mols>  (867) 
x0502c

>  <smiles>  (867) 
CC1CCCC1CNC(=O)c1csnc1Cl

>  <HIPPO Compound ID>  (867) 
34650

>  <alias>  (867) 
CSQKZWQGZMAGGL-UHFFFAOYSA-N-P46

>  <subsites>  (867) 


>  <placement_batch>  (867) 
CpKRS_FrAncestor_bulkdock_iter2

>  <name>  (867) 
CSQKZWQGZMAGGL-UHFFFAOYSA-N-P46

$$$$
NZECTOPNGLZWPF-UHFFFAOYSA-N-P11
     RDKit          3D

 16 17  0  0  0  0  0  0  0  0999 V2000
    4.6576   -8.5961   25.0535 C   0  0  0  0  0  0  0  0  0  0  0  0
    4.9741   -9.6896   24.0474 C   0  0  2  0  0  0  0  0  0  0  0  0
    5.5751   -9.0723   22.7744 C   0  0  0  0  0  0  0  0  0  0  0  0
    5.1888  -10.0007   21.6316 C   0  0  0  0  0  0  0  0  0  0  0  0
    4.4019  -11.1398   22.2628 C   0  0  0  0  0  0  0  0  0  0  0  0
    3.7843  -10.5341   23.5342 C   0  0  2  0  0  0  0  0  0  0  0  0
    2.5534   -9.6800   23.1964 C   0  0  0  0  0  0  0  0  0  0  0  0
    3.3418  -11.5775   24.4331 N   0  0  0  0  0  0  0  0  0  0  0  0
    4.0794  -12.8262   24.9600 C   0  0  0  0  0  0  0  0  0  0  0  0
    5.1847  -13.1693   24.8134 O   0  0  0  0  0  0  0  0  0  0  0  0
    3.1110  -13.6231   25.7487 C   0  0  0  0  0  0  0  0  0  0  0  0
    1.7990  -13.2837   25.7770 N   0  0  0  0  0  0  0  0  0  0  0  0
    1.1728  -14.2345   26.5649 O   0  0  0  0  0  0  0  0  0  0  0  0
    2.0911  -15.1173   27.0236 C   0  0  0  0  0  0  0  0  0  0  0  0
    3.3231  -14.7571   26.5602 C   0  0  0  0  0  0  0  0  0  0  0  0
    4.9402  -15.5849   26.9650 Br  0  0  0  0  0  0  0  0  0  0  0  0
  2  1  1  1
  2  3  1  0
  3  4  1  0
  4  5  1  0
  5  6  1  0
  6  7  1  6
  6  8  1  0
  8  9  1  0
  9 10  2  0
  9 11  1  0
 11 12  2  0
 12 13  1  0
 13 14  1  0
 14 15  2  0
 15 16  1  0
  6  2  1  0
 15 11  1  0
M  END
>  <inchikey>  (868) 
NZECTOPNGLZWPF-UHFFFAOYSA-N

>  <tags>  (868) 
fragmenstein_placed,CpKRS_FrAncestor_bulkdock_iter2

>  <ref_pdb>  (868) 
x0485c

>  <energy_score>  (868) 
-40.429668

>  <distance_score>  (868) 
0.460087

>  <HIPPO Pose ID>  (868) 
56990

>  <ref_mols>  (868) 
x0421a

>  <smiles>  (868) 
CC1CCCC1(C)NC(=O)c1nocc1Br

>  <HIPPO Compound ID>  (868) 
34652

>  <alias>  (868) 
NZECTOPNGLZWPF-UHFFFAOYSA-N-P11

>  <subsites>  (868) 


>  <placement_batch>  (868) 
CpKRS_FrAncestor_bulkdock_iter2

>  <name>  (868) 
NZECTOPNGLZWPF-UHFFFAOYSA-N-P11

$$$$
QALSZJRYPGTBHS-UHFFFAOYSA-N-P11
     RDKit          3D

 16 17  0  0  0  0  0  0  0  0999 V2000
    4.6673   -8.6043   25.0403 C   0  0  0  0  0  0  0  0  0  0  0  0
    4.9908   -9.7004   24.0385 C   0  0  2  0  0  0  0  0  0  0  0  0
    5.5623   -9.0770   22.7545 C   0  0  0  0  0  0  0  0  0  0  0  0
    5.1660  -10.0077   21.6178 C   0  0  0  0  0  0  0  0  0  0  0  0
    4.4170  -11.1641   22.2625 C   0  0  0  0  0  0  0  0  0  0  0  0
    3.8116  -10.5743   23.5474 C   0  0  2  0  0  0  0  0  0  0  0  0
    2.5537   -9.7492   23.2342 C   0  0  0  0  0  0  0  0  0  0  0  0
    3.4127  -11.6325   24.4522 N   0  0  0  0  0  0  0  0  0  0  0  0
    4.1959  -12.8589   24.9690 C   0  0  0  0  0  0  0  0  0  0  0  0
    5.3096  -13.1675   24.8080 O   0  0  0  0  0  0  0  0  0  0  0  0
    3.2677  -13.6896   25.7690 C   0  0  0  0  0  0  0  0  0  0  0  0
    1.9480  -13.3891   25.8276 N   0  0  0  0  0  0  0  0  0  0  0  0
    1.3701  -14.3694   26.6139 O   0  0  0  0  0  0  0  0  0  0  0  0
    2.3254  -15.2276   27.0401 C   0  0  0  0  0  0  0  0  0  0  0  0
    3.5455  -14.8293   26.5641 C   0  0  0  0  0  0  0  0  0  0  0  0
    5.0418  -15.5468   26.8933 Cl  0  0  0  0  0  0  0  0  0  0  0  0
  2  1  1  1
  2  3  1  0
  3  4  1  0
  4  5  1  0
  5  6  1  0
  6  7  1  6
  6  8  1  0
  8  9  1  0
  9 10  2  0
  9 11  1  0
 11 12  2  0
 12 13  1  0
 13 14  1  0
 14 15  2  0
 15 16  1  0
  6  2  1  0
 15 11  1  0
M  END
>  <inchikey>  (869) 
QALSZJRYPGTBHS-UHFFFAOYSA-N

>  <tags>  (869) 
fragmenstein_placed,CpKRS_FrAncestor_bulkdock_iter2

>  <ref_pdb>  (869) 
x0485c

>  <energy_score>  (869) 
-42.357175

>  <distance_score>  (869) 
0.429898

>  <HIPPO Pose ID>  (869) 
56994

>  <ref_mols>  (869) 
x0421a

>  <smiles>  (869) 
CC1CCCC1(C)NC(=O)c1nocc1Cl

>  <HIPPO Compound ID>  (869) 
34653

>  <alias>  (869) 
QALSZJRYPGTBHS-UHFFFAOYSA-N-P11

>  <subsites>  (869) 


>  <placement_batch>  (869) 
CpKRS_FrAncestor_bulkdock_iter2

>  <name>  (869) 
QALSZJRYPGTBHS-UHFFFAOYSA-N-P11

$$$$
NAZZRILJMVFNKA-UHFFFAOYSA-N-P46
     RDKit          3D

 16 17  0  0  0  0  0  0  0  0999 V2000
    4.1867  -16.0917   27.1302 C   0  0  0  0  0  0  0  0  0  0  0  0
    3.4286  -14.7823   27.1631 C   0  0  2  0  0  0  0  0  0  0  0  0
    1.9835  -14.9370   27.5857 C   0  0  0  0  0  0  0  0  0  0  0  0
    1.2879  -13.6663   27.1014 C   0  0  0  0  0  0  0  0  0  0  0  0
    2.1737  -13.0692   26.0057 C   0  0  0  0  0  0  0  0  0  0  0  0
    3.3032  -14.0786   25.8227 C   0  0  1  0  0  0  0  0  0  0  0  0
    4.6341  -13.6610   25.2263 C   0  0  0  0  0  0  0  0  0  0  0  0
    4.6342  -12.3925   24.5818 N   0  0  0  0  0  0  0  0  0  0  0  0
    5.0463  -11.9985   23.1619 C   0  0  0  0  0  0  0  0  0  0  0  0
    5.5241  -12.6318   22.3131 O   0  0  0  0  0  0  0  0  0  0  0  0
    4.8529  -10.5823   22.9844 C   0  0  0  0  0  0  0  0  0  0  0  0
    5.4405   -9.8652   21.9611 N   0  0  0  0  0  0  0  0  0  0  0  0
    5.2068   -8.5250   22.1418 C   0  0  0  0  0  0  0  0  0  0  0  0
    4.4284   -8.3897   23.2668 C   0  0  0  0  0  0  0  0  0  0  0  0
    4.1742   -9.6684   23.7462 C   0  0  0  0  0  0  0  0  0  0  0  0
    3.4421   -9.9365   24.8317 F   0  0  0  0  0  0  0  0  0  0  0  0
  2  1  1  6
  2  3  1  0
  3  4  1  0
  4  5  1  0
  5  6  1  0
  6  7  1  1
  7  8  1  0
  8  9  1  0
  9 10  2  0
  9 11  1  0
 11 12  1  0
 12 13  1  0
 13 14  2  0
 14 15  1  0
 15 16  1  0
  6  2  1  0
 15 11  2  0
M  END
>  <inchikey>  (870) 
NAZZRILJMVFNKA-UHFFFAOYSA-N

>  <tags>  (870) 
fragmenstein_placed,CpKRS_FrAncestor_bulkdock_iter2

>  <ref_pdb>  (870) 
x0485c

>  <energy_score>  (870) 
-4.811986

>  <distance_score>  (870) 
0.66896

>  <HIPPO Pose ID>  (870) 
57000

>  <ref_mols>  (870) 
x0502c

>  <smiles>  (870) 
CC1CCCC1CNC(=O)c1[nH]ccc1F

>  <HIPPO Compound ID>  (870) 
34654

>  <alias>  (870) 
NAZZRILJMVFNKA-UHFFFAOYSA-N-P46

>  <subsites>  (870) 


>  <placement_batch>  (870) 
CpKRS_FrAncestor_bulkdock_iter2

>  <name>  (870) 
NAZZRILJMVFNKA-UHFFFAOYSA-N-P46

$$$$
XDKRGSSRKDDPKK-UHFFFAOYSA-N-P44
     RDKit          3D

 19 20  0  0  0  0  0  0  0  0999 V2000
  -10.8088  -16.0481   42.7754 C   0  0  0  0  0  0  0  0  0  0  0  0
  -12.2855  -16.0805   43.0691 C   0  0  1  0  0  0  0  0  0  0  0  0
  -12.8533  -17.5002   43.1146 C   0  0  0  0  0  0  0  0  0  0  0  0
  -14.1555  -17.3732   43.9014 C   0  0  0  0  0  0  0  0  0  0  0  0
  -14.2135  -15.9238   44.3846 C   0  0  0  0  0  0  0  0  0  0  0  0
  -12.7541  -15.4414   44.3875 C   0  0  1  0  0  0  0  0  0  0  0  0
  -12.0352  -15.9154   45.6672 C   0  0  0  0  0  0  0  0  0  0  0  0
  -11.0987  -14.9740   46.2347 N   0  0  0  0  0  0  0  0  0  0  0  0
  -11.2174  -13.4605   46.4574 C   0  0  0  0  0  0  0  0  0  0  0  0
  -12.0575  -12.7163   46.1495 O   0  0  0  0  0  0  0  0  0  0  0  0
  -10.0482  -12.9836   47.1651 C   0  0  0  0  0  0  0  0  0  0  0  0
   -9.2696  -11.9574   46.6799 N   0  0  0  0  0  0  0  0  0  0  0  0
   -8.2664  -11.7223   47.5667 C   0  0  0  0  0  0  0  0  0  0  0  0
   -8.3691  -12.4997   48.6147 N   0  0  0  0  0  0  0  0  0  0  0  0
   -9.4990  -13.2795   48.4113 C   0  0  0  0  0  0  0  0  0  0  0  0
   -9.9657  -14.1920   49.5397 C   0  0  0  0  0  0  0  0  0  0  0  0
   -9.4676  -13.6436   50.9020 C   0  0  0  0  0  0  0  0  0  0  0  0
   -9.4104  -15.6144   49.3861 C   0  0  0  0  0  0  0  0  0  0  0  0
  -11.5042  -14.2564   49.6315 C   0  0  0  0  0  0  0  0  0  0  0  0
  2  1  1  1
  2  3  1  0
  3  4  1  0
  4  5  1  0
  5  6  1  0
  6  7  1  1
  7  8  1  0
  8  9  1  0
  9 10  2  0
  9 11  1  0
 11 12  1  0
 12 13  1  0
 13 14  2  0
 14 15  1  0
 15 16  1  0
 16 17  1  0
 16 18  1  0
 16 19  1  0
  6  2  1  0
 15 11  2  0
M  END
>  <inchikey>  (871) 
XDKRGSSRKDDPKK-UHFFFAOYSA-N

>  <tags>  (871) 
fragmenstein_placed,CpKRS_FrAncestor_bulkdock_iter2

>  <ref_pdb>  (871) 
x0485c

>  <energy_score>  (871) 
-38.914691

>  <distance_score>  (871) 
0.713245

>  <HIPPO Pose ID>  (871) 
57002

>  <ref_mols>  (871) 
x0502b

>  <smiles>  (871) 
CC1CCCC1CNC(=O)c1[nH]cnc1C(C)(C)C

>  <HIPPO Compound ID>  (871) 
34655

>  <alias>  (871) 
XDKRGSSRKDDPKK-UHFFFAOYSA-N-P44

>  <subsites>  (871) 


>  <placement_batch>  (871) 
CpKRS_FrAncestor_bulkdock_iter2

>  <name>  (871) 
XDKRGSSRKDDPKK-UHFFFAOYSA-N-P44

$$$$
JHVBOWHZKHPMBR-UHFFFAOYSA-N-P45
     RDKit          3D

 16 17  0  0  0  0  0  0  0  0999 V2000
    3.9711  -15.9886   27.0039 C   0  0  0  0  0  0  0  0  0  0  0  0
    3.2812  -14.6398   27.0472 C   0  0  2  0  0  0  0  0  0  0  0  0
    1.9015  -14.6844   27.6961 C   0  0  0  0  0  0  0  0  0  0  0  0
    1.0397  -13.6904   26.9171 C   0  0  0  0  0  0  0  0  0  0  0  0
    1.9905  -12.9023   26.0257 C   0  0  0  0  0  0  0  0  0  0  0  0
    3.0687  -13.9272   25.7088 C   0  0  1  0  0  0  0  0  0  0  0  0
    4.3701  -13.4655   25.0725 C   0  0  0  0  0  0  0  0  0  0  0  0
    4.3292  -12.2400   24.3290 N   0  0  0  0  0  0  0  0  0  0  0  0
    4.9711  -11.8669   22.9890 C   0  0  0  0  0  0  0  0  0  0  0  0
    5.5723  -12.5158   22.2347 O   0  0  0  0  0  0  0  0  0  0  0  0
    4.8504  -10.4549   22.7317 C   0  0  0  0  0  0  0  0  0  0  0  0
    5.7308   -9.8323   21.8821 N   0  0  0  0  0  0  0  0  0  0  0  0
    5.6332   -8.4969   21.8691 N   0  0  0  0  0  0  0  0  0  0  0  0
    4.5765   -8.2646   22.6410 C   0  0  0  0  0  0  0  0  0  0  0  0
    4.0243   -9.4429   23.1495 C   0  0  0  0  0  0  0  0  0  0  0  0
    2.4456   -9.5043   24.1297 Br  0  0  0  0  0  0  0  0  0  0  0  0
  2  1  1  6
  2  3  1  0
  3  4  1  0
  4  5  1  0
  5  6  1  0
  6  7  1  1
  7  8  1  0
  8  9  1  0
  9 10  2  0
  9 11  1  0
 11 12  1  0
 12 13  1  0
 13 14  2  0
 14 15  1  0
 15 16  1  0
  6  2  1  0
 15 11  2  0
M  END
>  <inchikey>  (872) 
JHVBOWHZKHPMBR-UHFFFAOYSA-N

>  <tags>  (872) 
fragmenstein_placed,CpKRS_FrAncestor_bulkdock_iter2

>  <ref_pdb>  (872) 
x0485c

>  <energy_score>  (872) 
-3.925568

>  <distance_score>  (872) 
0.833044

>  <HIPPO Pose ID>  (872) 
57004

>  <ref_mols>  (872) 
x0502a

>  <smiles>  (872) 
CC1CCCC1CNC(=O)c1[nH]ncc1Br

>  <HIPPO Compound ID>  (872) 
34656

>  <alias>  (872) 
JHVBOWHZKHPMBR-UHFFFAOYSA-N-P45

>  <subsites>  (872) 


>  <placement_batch>  (872) 
CpKRS_FrAncestor_bulkdock_iter2

>  <name>  (872) 
JHVBOWHZKHPMBR-UHFFFAOYSA-N-P45

$$$$
YKVCWEIIQMKXBU-UHFFFAOYSA-N-P46
     RDKit          3D

 16 17  0  0  0  0  0  0  0  0999 V2000
    4.1718  -15.8009   26.8132 C   0  0  0  0  0  0  0  0  0  0  0  0
    3.3794  -14.5075   26.8809 C   0  0  2  0  0  0  0  0  0  0  0  0
    1.9447  -14.7035   27.3302 C   0  0  0  0  0  0  0  0  0  0  0  0
    1.2305  -13.4116   26.9367 C   0  0  0  0  0  0  0  0  0  0  0  0
    2.0860  -12.7410   25.8546 C   0  0  0  0  0  0  0  0  0  0  0  0
    3.2099  -13.7318   25.5742 C   0  0  1  0  0  0  0  0  0  0  0  0
    4.5266  -13.2592   24.9776 C   0  0  0  0  0  0  0  0  0  0  0  0
    4.5683  -11.9652   24.3571 N   0  0  0  0  0  0  0  0  0  0  0  0
    4.0541  -11.4993   22.9945 C   0  0  0  0  0  0  0  0  0  0  0  0
    3.4449  -12.0678   22.1843 O   0  0  0  0  0  0  0  0  0  0  0  0
    4.5248  -10.1663   22.7218 C   0  0  0  0  0  0  0  0  0  0  0  0
    4.8657   -9.8141   21.4431 N   0  0  0  0  0  0  0  0  0  0  0  0
    5.4291   -8.6060   21.3330 N   0  0  0  0  0  0  0  0  0  0  0  0
    5.3997   -8.1495   22.5817 C   0  0  0  0  0  0  0  0  0  0  0  0
    4.8018   -9.0483   23.4742 C   0  0  0  0  0  0  0  0  0  0  0  0
    4.5575   -8.7115   25.1056 Cl  0  0  0  0  0  0  0  0  0  0  0  0
  2  1  1  6
  2  3  1  0
  3  4  1  0
  4  5  1  0
  5  6  1  0
  6  7  1  1
  7  8  1  0
  8  9  1  0
  9 10  2  0
  9 11  1  0
 11 12  1  0
 12 13  1  0
 13 14  2  0
 14 15  1  0
 15 16  1  0
  6  2  1  0
 15 11  2  0
M  END
>  <inchikey>  (873) 
YKVCWEIIQMKXBU-UHFFFAOYSA-N

>  <tags>  (873) 
fragmenstein_placed,CpKRS_FrAncestor_bulkdock_iter2

>  <ref_pdb>  (873) 
x0485c

>  <energy_score>  (873) 
-1.059109

>  <distance_score>  (873) 
0.750447

>  <HIPPO Pose ID>  (873) 
57009

>  <ref_mols>  (873) 
x0502c

>  <smiles>  (873) 
CC1CCCC1CNC(=O)c1[nH]ncc1Cl

>  <HIPPO Compound ID>  (873) 
34657

>  <alias>  (873) 
YKVCWEIIQMKXBU-UHFFFAOYSA-N-P46

>  <subsites>  (873) 


>  <placement_batch>  (873) 
CpKRS_FrAncestor_bulkdock_iter2

>  <name>  (873) 
YKVCWEIIQMKXBU-UHFFFAOYSA-N-P46

$$$$
PQKOEGAHJXEVGI-UHFFFAOYSA-N-P45
     RDKit          3D

 16 17  0  0  0  0  0  0  0  0999 V2000
    4.1142  -15.8048   27.0123 C   0  0  0  0  0  0  0  0  0  0  0  0
    3.1604  -14.6368   27.1446 C   0  0  2  0  0  0  0  0  0  0  0  0
    1.7075  -15.0723   27.2769 C   0  0  0  0  0  0  0  0  0  0  0  0
    0.9117  -13.8888   26.7449 C   0  0  0  0  0  0  0  0  0  0  0  0
    1.7234  -13.4538   25.5405 C   0  0  0  0  0  0  0  0  0  0  0  0
    3.1502  -13.5268   26.0718 C   0  0  2  0  0  0  0  0  0  0  0  0
    4.2625  -13.4998   25.0456 C   0  0  0  0  0  0  0  0  0  0  0  0
    4.3194  -12.2439   24.3393 N   0  0  0  0  0  0  0  0  0  0  0  0
    4.9528  -11.8879   22.9835 C   0  0  0  0  0  0  0  0  0  0  0  0
    5.4614  -12.5672   22.1872 O   0  0  0  0  0  0  0  0  0  0  0  0
    4.9564  -10.4254   22.7826 C   0  0  0  0  0  0  0  0  0  0  0  0
    5.9501   -9.8665   22.0685 N   0  0  0  0  0  0  0  0  0  0  0  0
    5.7798   -8.5080   22.1295 O   0  0  0  0  0  0  0  0  0  0  0  0
    4.6632   -8.2370   22.8312 C   0  0  0  0  0  0  0  0  0  0  0  0
    4.0818   -9.4081   23.2202 C   0  0  0  0  0  0  0  0  0  0  0  0
    2.4328   -9.5894   24.0652 Br  0  0  0  0  0  0  0  0  0  0  0  0
  2  1  1  6
  2  3  1  0
  3  4  1  0
  4  5  1  0
  5  6  1  0
  6  7  1  6
  7  8  1  0
  8  9  1  0
  9 10  2  0
  9 11  1  0
 11 12  2  0
 12 13  1  0
 13 14  1  0
 14 15  2  0
 15 16  1  0
  6  2  1  0
 15 11  1  0
M  END
>  <inchikey>  (874) 
PQKOEGAHJXEVGI-UHFFFAOYSA-N

>  <tags>  (874) 
fragmenstein_placed,CpKRS_FrAncestor_bulkdock_iter2

>  <ref_pdb>  (874) 
x0485c

>  <energy_score>  (874) 
-6.158054

>  <distance_score>  (874) 
0.828909

>  <HIPPO Pose ID>  (874) 
57010

>  <ref_mols>  (874) 
x0502a

>  <smiles>  (874) 
CC1CCCC1CNC(=O)c1nocc1Br

>  <HIPPO Compound ID>  (874) 
34658

>  <alias>  (874) 
PQKOEGAHJXEVGI-UHFFFAOYSA-N-P45

>  <subsites>  (874) 


>  <placement_batch>  (874) 
CpKRS_FrAncestor_bulkdock_iter2

>  <name>  (874) 
PQKOEGAHJXEVGI-UHFFFAOYSA-N-P45

$$$$
KZTNBWBEPYOWQX-UHFFFAOYSA-N-P46
     RDKit          3D

 16 17  0  0  0  0  0  0  0  0999 V2000
    4.2720  -16.0072   26.8449 C   0  0  0  0  0  0  0  0  0  0  0  0
    3.3806  -14.8261   27.1305 C   0  0  2  0  0  0  0  0  0  0  0  0
    1.9187  -15.1991   27.3081 C   0  0  0  0  0  0  0  0  0  0  0  0
    1.1491  -13.9397   26.9283 C   0  0  0  0  0  0  0  0  0  0  0  0
    1.9147  -13.4362   25.7195 C   0  0  0  0  0  0  0  0  0  0  0  0
    3.3676  -13.6642   26.1295 C   0  0  2  0  0  0  0  0  0  0  0  0
    4.4125  -13.6036   25.0348 C   0  0  0  0  0  0  0  0  0  0  0  0
    4.5921  -12.2422   24.6183 N   0  0  0  0  0  0  0  0  0  0  0  0
    4.1826  -11.5356   23.3247 C   0  0  0  0  0  0  0  0  0  0  0  0
    3.5653  -11.9213   22.4170 O   0  0  0  0  0  0  0  0  0  0  0  0
    4.7113  -10.1677   23.3919 C   0  0  0  0  0  0  0  0  0  0  0  0
    5.0393   -9.5979   24.5699 N   0  0  0  0  0  0  0  0  0  0  0  0
    5.5254   -8.3420   24.2675 O   0  0  0  0  0  0  0  0  0  0  0  0
    5.4973   -8.1709   22.9296 C   0  0  0  0  0  0  0  0  0  0  0  0
    4.9839   -9.2848   22.3386 C   0  0  0  0  0  0  0  0  0  0  0  0
    4.7770   -9.5499   20.7098 Cl  0  0  0  0  0  0  0  0  0  0  0  0
  2  1  1  6
  2  3  1  0
  3  4  1  0
  4  5  1  0
  5  6  1  0
  6  7  1  6
  7  8  1  0
  8  9  1  0
  9 10  2  0
  9 11  1  0
 11 12  2  0
 12 13  1  0
 13 14  1  0
 14 15  2  0
 15 16  1  0
  6  2  1  0
 15 11  1  0
M  END
>  <inchikey>  (875) 
KZTNBWBEPYOWQX-UHFFFAOYSA-N

>  <tags>  (875) 
fragmenstein_placed,CpKRS_FrAncestor_bulkdock_iter2

>  <ref_pdb>  (875) 
x0485c

>  <energy_score>  (875) 
-13.495577

>  <distance_score>  (875) 
0.689595

>  <HIPPO Pose ID>  (875) 
57015

>  <ref_mols>  (875) 
x0502c

>  <smiles>  (875) 
CC1CCCC1CNC(=O)c1nocc1Cl

>  <HIPPO Compound ID>  (875) 
34659

>  <alias>  (875) 
KZTNBWBEPYOWQX-UHFFFAOYSA-N-P46

>  <subsites>  (875) 


>  <placement_batch>  (875) 
CpKRS_FrAncestor_bulkdock_iter2

>  <name>  (875) 
KZTNBWBEPYOWQX-UHFFFAOYSA-N-P46

$$$$
ZXKJCUOAYZPHPZ-UHFFFAOYSA-N-P44
     RDKit          3D

 16 17  0  0  0  0  0  0  0  0999 V2000
   -9.7512  -14.3378   49.4174 C   0  0  0  0  0  0  0  0  0  0  0  0
   -9.4854  -13.4340   48.2286 C   0  0  2  0  0  0  0  0  0  0  0  0
   -8.3057  -12.4834   48.4534 C   0  0  0  0  0  0  0  0  0  0  0  0
   -8.4829  -11.3869   47.3992 C   0  0  0  0  0  0  0  0  0  0  0  0
   -9.9137  -11.5382   46.8687 C   0  0  0  0  0  0  0  0  0  0  0  0
  -10.5964  -12.4346   47.9030 C   0  0  1  0  0  0  0  0  0  0  0  0
  -11.9604  -12.9841   47.5153 C   0  0  0  0  0  0  0  0  0  0  0  0
  -12.0459  -13.8825   46.3988 N   0  0  0  0  0  0  0  0  0  0  0  0
  -13.2727  -14.4042   45.6255 C   0  0  0  0  0  0  0  0  0  0  0  0
  -14.4004  -14.1275   45.7233 O   0  0  0  0  0  0  0  0  0  0  0  0
  -12.8658  -15.3966   44.6402 C   0  0  0  0  0  0  0  0  0  0  0  0
  -11.5364  -15.6774   44.4139 O   0  0  0  0  0  0  0  0  0  0  0  0
  -11.4959  -16.6250   43.4347 C   0  0  0  0  0  0  0  0  0  0  0  0
  -12.7625  -16.9905   43.0452 C   0  0  0  0  0  0  0  0  0  0  0  0
  -13.6230  -16.1868   43.8057 C   0  0  0  0  0  0  0  0  0  0  0  0
  -14.9571  -16.2047   43.7276 F   0  0  0  0  0  0  0  0  0  0  0  0
  2  1  1  1
  2  3  1  0
  3  4  1  0
  4  5  1  0
  5  6  1  0
  6  7  1  6
  7  8  1  0
  8  9  1  0
  9 10  2  0
  9 11  1  0
 11 12  1  0
 12 13  1  0
 13 14  2  0
 14 15  1  0
 15 16  1  0
  6  2  1  0
 15 11  2  0
M  END
>  <inchikey>  (876) 
ZXKJCUOAYZPHPZ-UHFFFAOYSA-N

>  <tags>  (876) 
fragmenstein_placed,CpKRS_FrAncestor_bulkdock_iter2

>  <ref_pdb>  (876) 
x0485c

>  <energy_score>  (876) 
-6.908352

>  <distance_score>  (876) 
0.947966

>  <HIPPO Pose ID>  (876) 
57017

>  <ref_mols>  (876) 
x0502b

>  <smiles>  (876) 
CC1CCCC1CNC(=O)c1occc1F

>  <HIPPO Compound ID>  (876) 
34660

>  <alias>  (876) 
ZXKJCUOAYZPHPZ-UHFFFAOYSA-N-P44

>  <subsites>  (876) 


>  <placement_batch>  (876) 
CpKRS_FrAncestor_bulkdock_iter2

>  <name>  (876) 
ZXKJCUOAYZPHPZ-UHFFFAOYSA-N-P44

$$$$
KRLXDVMHWALKMB-UHFFFAOYSA-N-P46
     RDKit          3D

 16 17  0  0  0  0  0  0  0  0999 V2000
    2.7449   -9.1001   23.7586 C   0  0  0  0  0  0  0  0  0  0  0  0
    4.1541   -9.5357   24.1547 C   0  0  2  0  0  0  0  0  0  0  0  0
    5.1081   -8.3509   24.2006 C   0  0  0  0  0  0  0  0  0  0  0  0
    5.6078   -8.1929   22.7655 C   0  0  0  0  0  0  0  0  0  0  0  0
    5.3138   -9.5074   22.0497 C   0  0  0  0  0  0  0  0  0  0  0  0
    4.8775  -10.4548   23.1602 C   0  0  2  0  0  0  0  0  0  0  0  0
    4.0927  -11.6515   22.6644 C   0  0  0  0  0  0  0  0  0  0  0  0
    3.5118  -12.3613   23.7627 N   0  0  0  0  0  0  0  0  0  0  0  0
    4.1665  -13.2359   24.8456 C   0  0  0  0  0  0  0  0  0  0  0  0
    5.2714  -13.5800   24.9712 O   0  0  0  0  0  0  0  0  0  0  0  0
    3.1320  -13.5924   25.7997 C   0  0  0  0  0  0  0  0  0  0  0  0
    1.9505  -12.8759   25.8177 O   0  0  0  0  0  0  0  0  0  0  0  0
    1.2735  -13.3902   26.8768 C   0  0  0  0  0  0  0  0  0  0  0  0
    1.8484  -14.3989   27.4832 N   0  0  0  0  0  0  0  0  0  0  0  0
    3.0422  -14.5246   26.8068 C   0  0  0  0  0  0  0  0  0  0  0  0
    4.3270  -15.8047   27.2611 Br  0  0  0  0  0  0  0  0  0  0  0  0
  2  1  1  6
  2  3  1  0
  3  4  1  0
  4  5  1  0
  5  6  1  0
  6  7  1  6
  7  8  1  0
  8  9  1  0
  9 10  2  0
  9 11  1  0
 11 12  1  0
 12 13  1  0
 13 14  2  0
 14 15  1  0
 15 16  1  0
  6  2  1  0
 15 11  2  0
M  END
>  <inchikey>  (877) 
KRLXDVMHWALKMB-UHFFFAOYSA-N

>  <tags>  (877) 
fragmenstein_placed,CpKRS_FrAncestor_bulkdock_iter2

>  <ref_pdb>  (877) 
x0485c

>  <energy_score>  (877) 
-5.955588

>  <distance_score>  (877) 
0.466209

>  <HIPPO Pose ID>  (877) 
57021

>  <ref_mols>  (877) 
x0502c

>  <smiles>  (877) 
CC1CCCC1CNC(=O)c1ocnc1Br

>  <HIPPO Compound ID>  (877) 
34661

>  <alias>  (877) 
KRLXDVMHWALKMB-UHFFFAOYSA-N-P46

>  <subsites>  (877) 


>  <placement_batch>  (877) 
CpKRS_FrAncestor_bulkdock_iter2

>  <name>  (877) 
KRLXDVMHWALKMB-UHFFFAOYSA-N-P46

$$$$
IIBACFUIHDINHQ-UHFFFAOYSA-N-P44
     RDKit          3D

 19 20  0  0  0  0  0  0  0  0999 V2000
  -14.9602  -14.8906   43.8144 C   0  0  0  0  0  0  0  0  0  0  0  0
  -13.6975  -15.6488   43.4384 C   0  0  2  0  0  0  0  0  0  0  0  0
  -13.8005  -17.1462   43.7111 C   0  0  0  0  0  0  0  0  0  0  0  0
  -12.3610  -17.6398   43.6530 C   0  0  0  0  0  0  0  0  0  0  0  0
  -11.4717  -16.4120   43.8551 C   0  0  0  0  0  0  0  0  0  0  0  0
  -12.4085  -15.2371   44.1734 C   0  0  2  0  0  0  0  0  0  0  0  0
  -12.5575  -15.0386   45.6893 C   0  0  0  0  0  0  0  0  0  0  0  0
  -11.3996  -14.3990   46.2650 N   0  0  0  0  0  0  0  0  0  0  0  0
  -10.9972  -12.9112   46.3125 C   0  0  0  0  0  0  0  0  0  0  0  0
  -11.4988  -11.9775   45.8276 O   0  0  0  0  0  0  0  0  0  0  0  0
   -9.8096  -12.7085   47.1395 C   0  0  0  0  0  0  0  0  0  0  0  0
   -9.0000  -11.6336   46.8361 O   0  0  0  0  0  0  0  0  0  0  0  0
   -8.0383  -11.6433   47.7904 C   0  0  0  0  0  0  0  0  0  0  0  0
   -8.1554  -12.5906   48.6869 N   0  0  0  0  0  0  0  0  0  0  0  0
   -9.2821  -13.3000   48.2797 C   0  0  0  0  0  0  0  0  0  0  0  0
   -9.8203  -14.4458   49.0594 C   0  0  0  0  0  0  0  0  0  0  0  0
   -8.9888  -14.8880   50.0343 F   0  0  0  0  0  0  0  0  0  0  0  0
  -10.0957  -15.5120   48.2595 F   0  0  0  0  0  0  0  0  0  0  0  0
  -10.9955  -14.1206   49.6640 F   0  0  0  0  0  0  0  0  0  0  0  0
  2  1  1  1
  2  3  1  0
  3  4  1  0
  4  5  1  0
  5  6  1  0
  6  7  1  1
  7  8  1  0
  8  9  1  0
  9 10  2  0
  9 11  1  0
 11 12  1  0
 12 13  1  0
 13 14  2  0
 14 15  1  0
 15 16  1  0
 16 17  1  0
 16 18  1  0
 16 19  1  0
  6  2  1  0
 15 11  2  0
M  END
>  <inchikey>  (878) 
IIBACFUIHDINHQ-UHFFFAOYSA-N

>  <tags>  (878) 
fragmenstein_placed,CpKRS_FrAncestor_bulkdock_iter2

>  <ref_pdb>  (878) 
x0485c

>  <energy_score>  (878) 
-1.964485

>  <distance_score>  (878) 
0.304532

>  <HIPPO Pose ID>  (878) 
57023

>  <ref_mols>  (878) 
x0502b

>  <smiles>  (878) 
CC1CCCC1CNC(=O)c1ocnc1C(F)(F)F

>  <HIPPO Compound ID>  (878) 
34662

>  <alias>  (878) 
IIBACFUIHDINHQ-UHFFFAOYSA-N-P44

>  <subsites>  (878) 


>  <placement_batch>  (878) 
CpKRS_FrAncestor_bulkdock_iter2

>  <name>  (878) 
IIBACFUIHDINHQ-UHFFFAOYSA-N-P44

$$$$
DSWVEMMHOZLPSV-UHFFFAOYSA-N-P46
     RDKit          3D

 16 17  0  0  0  0  0  0  0  0999 V2000
    4.2654  -15.9687   26.8960 C   0  0  0  0  0  0  0  0  0  0  0  0
    3.3580  -14.7935   27.1750 C   0  0  2  0  0  0  0  0  0  0  0  0
    1.9003  -15.1874   27.3409 C   0  0  0  0  0  0  0  0  0  0  0  0
    1.1141  -13.9550   26.9100 C   0  0  0  0  0  0  0  0  0  0  0  0
    1.8939  -13.4757   25.7011 C   0  0  0  0  0  0  0  0  0  0  0  0
    3.3378  -13.6408   26.1612 C   0  0  2  0  0  0  0  0  0  0  0  0
    4.4337  -13.5969   25.1236 C   0  0  0  0  0  0  0  0  0  0  0  0
    4.4163  -12.3769   24.3655 N   0  0  0  0  0  0  0  0  0  0  0  0
    5.0357  -12.0414   23.0042 C   0  0  0  0  0  0  0  0  0  0  0  0
    5.5936  -12.7194   22.2431 O   0  0  0  0  0  0  0  0  0  0  0  0
    4.9127  -10.6243   22.7293 C   0  0  0  0  0  0  0  0  0  0  0  0
    5.7532  -10.1264   21.7694 O   0  0  0  0  0  0  0  0  0  0  0  0
    5.5915   -8.7622   21.6506 N   0  0  0  0  0  0  0  0  0  0  0  0
    4.6230   -8.4613   22.5073 C   0  0  0  0  0  0  0  0  0  0  0  0
    4.1519   -9.5812   23.1912 C   0  0  0  0  0  0  0  0  0  0  0  0
    2.7340   -9.5205   24.4002 Br  0  0  0  0  0  0  0  0  0  0  0  0
  2  1  1  6
  2  3  1  0
  3  4  1  0
  4  5  1  0
  5  6  1  0
  6  7  1  6
  7  8  1  0
  8  9  1  0
  9 10  2  0
  9 11  1  0
 11 12  1  0
 12 13  1  0
 13 14  2  0
 14 15  1  0
 15 16  1  0
  6  2  1  0
 15 11  2  0
M  END
>  <inchikey>  (879) 
DSWVEMMHOZLPSV-UHFFFAOYSA-N

>  <tags>  (879) 
fragmenstein_placed,CpKRS_FrAncestor_bulkdock_iter2

>  <ref_pdb>  (879) 
x0485c

>  <energy_score>  (879) 
-4.75001

>  <distance_score>  (879) 
0.768236

>  <HIPPO Pose ID>  (879) 
57027

>  <ref_mols>  (879) 
x0502c

>  <smiles>  (879) 
CC1CCCC1CNC(=O)c1oncc1Br

>  <HIPPO Compound ID>  (879) 
34663

>  <alias>  (879) 
DSWVEMMHOZLPSV-UHFFFAOYSA-N-P46

>  <subsites>  (879) 


>  <placement_batch>  (879) 
CpKRS_FrAncestor_bulkdock_iter2

>  <name>  (879) 
DSWVEMMHOZLPSV-UHFFFAOYSA-N-P46

$$$$
RZIRJECJWWOOCO-UHFFFAOYSA-N-P45
     RDKit          3D

 16 17  0  0  0  0  0  0  0  0999 V2000
    3.5357   -9.1130   24.8276 C   0  0  0  0  0  0  0  0  0  0  0  0
    4.7487   -9.5691   24.0340 C   0  0  2  0  0  0  0  0  0  0  0  0
    5.5666   -8.3558   23.5750 C   0  0  0  0  0  0  0  0  0  0  0  0
    5.1317   -8.1434   22.1392 C   0  0  0  0  0  0  0  0  0  0  0  0
    5.0248   -9.5626   21.6199 C   0  0  0  0  0  0  0  0  0  0  0  0
    4.2995  -10.2990   22.7479 C   0  0  1  0  0  0  0  0  0  0  0  0
    4.5930  -11.7955   22.7408 C   0  0  0  0  0  0  0  0  0  0  0  0
    3.9366  -12.5044   23.8034 N   0  0  0  0  0  0  0  0  0  0  0  0
    4.5185  -13.3746   24.9371 C   0  0  0  0  0  0  0  0  0  0  0  0
    5.6159  -13.7154   25.1414 O   0  0  0  0  0  0  0  0  0  0  0  0
    3.4470  -13.8012   25.8593 C   0  0  0  0  0  0  0  0  0  0  0  0
    1.9085  -13.0253   25.8918 S   0  0  0  0  0  0  0  0  0  0  0  0
    1.3759  -13.9795   27.1984 C   0  0  0  0  0  0  0  0  0  0  0  0
    2.2974  -14.9315   27.5593 C   0  0  0  0  0  0  0  0  0  0  0  0
    3.4890  -14.8180   26.8005 C   0  0  0  0  0  0  0  0  0  0  0  0
    4.5428  -15.6478   27.0053 N   0  0  0  0  0  0  0  0  0  0  0  0
  2  1  1  6
  2  3  1  0
  3  4  1  0
  4  5  1  0
  5  6  1  0
  6  7  1  1
  7  8  1  0
  8  9  1  0
  9 10  2  0
  9 11  1  0
 11 12  1  0
 12 13  1  0
 13 14  2  0
 14 15  1  0
 15 16  1  0
  6  2  1  0
 15 11  2  0
M  END
>  <inchikey>  (880) 
RZIRJECJWWOOCO-UHFFFAOYSA-N

>  <tags>  (880) 
fragmenstein_placed,CpKRS_FrAncestor_bulkdock_iter2

>  <ref_pdb>  (880) 
x0485c

>  <energy_score>  (880) 
-37.477208

>  <distance_score>  (880) 
0.379912

>  <HIPPO Pose ID>  (880) 
57028

>  <ref_mols>  (880) 
x0502a

>  <smiles>  (880) 
CC1CCCC1CNC(=O)c1sccc1N

>  <HIPPO Compound ID>  (880) 
34664

>  <alias>  (880) 
RZIRJECJWWOOCO-UHFFFAOYSA-N-P45

>  <subsites>  (880) 


>  <placement_batch>  (880) 
CpKRS_FrAncestor_bulkdock_iter2

>  <name>  (880) 
RZIRJECJWWOOCO-UHFFFAOYSA-N-P45

$$$$
FALHZPLCCXCLLU-UHFFFAOYSA-N-P11
     RDKit          3D

 16 17  0  0  0  0  0  0  0  0999 V2000
    4.6581   -8.4285   25.0810 C   0  0  0  0  0  0  0  0  0  0  0  0
    5.1243   -9.4211   24.0309 C   0  0  2  0  0  0  0  0  0  0  0  0
    5.5991   -8.6983   22.7657 C   0  0  0  0  0  0  0  0  0  0  0  0
    5.2967   -9.6340   21.5996 C   0  0  0  0  0  0  0  0  0  0  0  0
    4.6550  -10.8699   22.2101 C   0  0  0  0  0  0  0  0  0  0  0  0
    4.0283  -10.3448   23.4994 C   0  0  1  0  0  0  0  0  0  0  0  0
    3.5933  -11.3795   24.3914 N   0  0  0  0  0  0  0  0  0  0  0  0
    4.1734  -12.7810   24.6563 C   0  0  0  0  0  0  0  0  0  0  0  0
    5.1395  -13.2868   24.2488 O   0  0  0  0  0  0  0  0  0  0  0  0
    3.2673  -13.5282   25.5332 C   0  0  0  0  0  0  0  0  0  0  0  0
    3.6512  -14.4659   26.4868 C   0  0  0  0  0  0  0  0  0  0  0  0
    2.4974  -14.8985   27.1574 C   0  0  0  0  0  0  0  0  0  0  0  0
    2.5040  -16.0812   28.6037 Br  0  0  0  0  0  0  0  0  0  0  0  0
    1.4108  -14.2986   26.5803 C   0  0  0  0  0  0  0  0  0  0  0  0
    1.8811  -13.5411   25.5324 N   0  0  0  0  0  0  0  0  0  0  0  0
    1.0097  -12.9728   24.5263 C   0  0  0  0  0  0  0  0  0  0  0  0
  2  1  1  1
  2  3  1  0
  3  4  1  0
  4  5  1  0
  5  6  1  0
  6  7  1  1
  7  8  1  0
  8  9  2  0
  8 10  1  0
 10 11  2  0
 11 12  1  0
 12 13  1  0
 12 14  2  0
 14 15  1  0
 15 16  1  0
  6  2  1  0
 15 10  1  0
M  END
>  <inchikey>  (881) 
FALHZPLCCXCLLU-UHFFFAOYSA-N

>  <tags>  (881) 
fragmenstein_placed,CpKRS_FrAncestor_bulkdock_iter2

>  <ref_pdb>  (881) 
x0485c

>  <energy_score>  (881) 
-10.081658

>  <distance_score>  (881) 
0.500093

>  <HIPPO Pose ID>  (881) 
57035

>  <ref_mols>  (881) 
x0421a

>  <smiles>  (881) 
CC1CCCC1NC(=O)c1cc(Br)cn1C

>  <HIPPO Compound ID>  (881) 
34666

>  <alias>  (881) 
FALHZPLCCXCLLU-UHFFFAOYSA-N-P11

>  <subsites>  (881) 


>  <placement_batch>  (881) 
CpKRS_FrAncestor_bulkdock_iter2

>  <name>  (881) 
FALHZPLCCXCLLU-UHFFFAOYSA-N-P11

$$$$
XPZMWFQXIXANBB-UHFFFAOYSA-N-P11
     RDKit          3D

 16 17  0  0  0  0  0  0  0  0999 V2000
    4.6472   -8.4353   25.0724 C   0  0  0  0  0  0  0  0  0  0  0  0
    5.1165   -9.4293   24.0249 C   0  0  2  0  0  0  0  0  0  0  0  0
    5.5907   -8.7079   22.7586 C   0  0  0  0  0  0  0  0  0  0  0  0
    5.2875   -9.6450   21.5939 C   0  0  0  0  0  0  0  0  0  0  0  0
    4.6508  -10.8823   22.2066 C   0  0  0  0  0  0  0  0  0  0  0  0
    4.0232  -10.3579   23.4956 C   0  0  1  0  0  0  0  0  0  0  0  0
    3.5948  -11.3941   24.3906 N   0  0  0  0  0  0  0  0  0  0  0  0
    4.1840  -12.7922   24.6582 C   0  0  0  0  0  0  0  0  0  0  0  0
    5.1530  -13.2928   24.2512 O   0  0  0  0  0  0  0  0  0  0  0  0
    3.2977  -13.5450   25.5350 C   0  0  0  0  0  0  0  0  0  0  0  0
    3.6629  -14.4956   26.4754 C   0  0  0  0  0  0  0  0  0  0  0  0
    2.4699  -14.8708   27.1006 C   0  0  0  0  0  0  0  0  0  0  0  0
    2.4016  -16.0365   28.5677 Br  0  0  0  0  0  0  0  0  0  0  0  0
    1.3997  -14.2612   26.5915 N   0  0  0  0  0  0  0  0  0  0  0  0
    1.9220  -13.5748   25.5496 N   0  0  0  0  0  0  0  0  0  0  0  0
    1.0072  -13.0338   24.5715 C   0  0  0  0  0  0  0  0  0  0  0  0
  2  1  1  1
  2  3  1  0
  3  4  1  0
  4  5  1  0
  5  6  1  0
  6  7  1  1
  7  8  1  0
  8  9  2  0
  8 10  1  0
 10 11  2  0
 11 12  1  0
 12 13  1  0
 12 14  2  0
 14 15  1  0
 15 16  1  0
  6  2  1  0
 15 10  1  0
M  END
>  <inchikey>  (882) 
XPZMWFQXIXANBB-UHFFFAOYSA-N

>  <tags>  (882) 
fragmenstein_placed,CpKRS_FrAncestor_bulkdock_iter2

>  <ref_pdb>  (882) 
x0485c

>  <energy_score>  (882) 
-8.807725

>  <distance_score>  (882) 
0.481541

>  <HIPPO Pose ID>  (882) 
57039

>  <ref_mols>  (882) 
x0421a

>  <smiles>  (882) 
CC1CCCC1NC(=O)c1cc(Br)nn1C

>  <HIPPO Compound ID>  (882) 
34667

>  <alias>  (882) 
XPZMWFQXIXANBB-UHFFFAOYSA-N-P11

>  <subsites>  (882) 


>  <placement_batch>  (882) 
CpKRS_FrAncestor_bulkdock_iter2

>  <name>  (882) 
XPZMWFQXIXANBB-UHFFFAOYSA-N-P11

$$$$
HYBVCJFRIDFQDG-UHFFFAOYSA-N-P13
     RDKit          3D

 15 16  0  0  0  0  0  0  0  0999 V2000
    4.7813   -8.4621   25.0402 C   0  0  0  0  0  0  0  0  0  0  0  0
    4.5316   -9.1681   23.7186 C   0  0  1  0  0  0  0  0  0  0  0  0
    5.3253   -8.5211   22.5855 C   0  0  0  0  0  0  0  0  0  0  0  0
    5.4696   -9.6051   21.5245 C   0  0  0  0  0  0  0  0  0  0  0  0
    5.0291  -10.9127   22.1679 C   0  0  0  0  0  0  0  0  0  0  0  0
    5.0258  -10.6135   23.6596 C   0  0  2  0  0  0  0  0  0  0  0  0
    4.2561  -11.5687   24.3925 N   0  0  0  0  0  0  0  0  0  0  0  0
    4.5790  -13.0189   24.7890 C   0  0  0  0  0  0  0  0  0  0  0  0
    5.5535  -13.6407   24.6484 O   0  0  0  0  0  0  0  0  0  0  0  0
    3.4419  -13.5937   25.5423 C   0  0  0  0  0  0  0  0  0  0  0  0
    3.5962  -14.6664   26.4899 C   0  0  0  0  0  0  0  0  0  0  0  0
    2.4457  -14.8125   27.2148 C   0  0  0  0  0  0  0  0  0  0  0  0
    2.2924  -15.8785   28.7758 Br  0  0  0  0  0  0  0  0  0  0  0  0
    1.2359  -13.8193   26.5778 S   0  0  0  0  0  0  0  0  0  0  0  0
    2.2084  -13.0647   25.4594 N   0  0  0  0  0  0  0  0  0  0  0  0
  2  1  1  1
  2  3  1  0
  3  4  1  0
  4  5  1  0
  5  6  1  0
  6  7  1  1
  7  8  1  0
  8  9  2  0
  8 10  1  0
 10 11  1  0
 11 12  2  0
 12 13  1  0
 12 14  1  0
 14 15  1  0
  6  2  1  0
 15 10  2  0
M  END
>  <inchikey>  (883) 
HYBVCJFRIDFQDG-UHFFFAOYSA-N

>  <tags>  (883) 
fragmenstein_placed,CpKRS_FrAncestor_bulkdock_iter2

>  <ref_pdb>  (883) 
x0485c

>  <energy_score>  (883) 
-7.351367

>  <distance_score>  (883) 
0.334131

>  <HIPPO Pose ID>  (883) 
57045

>  <ref_mols>  (883) 
x0421c

>  <smiles>  (883) 
CC1CCCC1NC(=O)c1cc(Br)sn1

>  <HIPPO Compound ID>  (883) 
34668

>  <alias>  (883) 
HYBVCJFRIDFQDG-UHFFFAOYSA-N-P13

>  <subsites>  (883) 


>  <placement_batch>  (883) 
CpKRS_FrAncestor_bulkdock_iter2

>  <name>  (883) 
HYBVCJFRIDFQDG-UHFFFAOYSA-N-P13

$$$$
DADSFGDXNISQKR-UHFFFAOYSA-N-P11
     RDKit          3D

 16 17  0  0  0  0  0  0  0  0999 V2000
    3.1672   -9.1743   24.2821 C   0  0  0  0  0  0  0  0  0  0  0  0
    4.6442   -9.5599   24.2245 C   0  0  2  0  0  0  0  0  0  0  0  0
    5.3767   -8.8559   23.0793 C   0  0  0  0  0  0  0  0  0  0  0  0
    5.2056   -9.7594   21.8596 C   0  0  0  0  0  0  0  0  0  0  0  0
    4.7968  -11.1336   22.3888 C   0  0  0  0  0  0  0  0  0  0  0  0
    4.9085  -11.0349   23.9085 C   0  0  2  0  0  0  0  0  0  0  0  0
    4.0556  -11.9671   24.5861 N   0  0  0  0  0  0  0  0  0  0  0  0
    4.3438  -13.3755   25.1186 C   0  0  0  0  0  0  0  0  0  0  0  0
    5.2957  -14.0355   25.0258 O   0  0  0  0  0  0  0  0  0  0  0  0
    3.1771  -13.8780   25.8547 C   0  0  0  0  0  0  0  0  0  0  0  0
    3.2354  -14.7586   26.9315 C   0  0  0  0  0  0  0  0  0  0  0  0
    1.9423  -14.8928   27.4694 C   0  0  0  0  0  0  0  0  0  0  0  0
    1.5431  -15.7345   28.8855 Cl  0  0  0  0  0  0  0  0  0  0  0  0
    1.0866  -14.1931   26.6571 C   0  0  0  0  0  0  0  0  0  0  0  0
    1.8292  -13.6559   25.6313 N   0  0  0  0  0  0  0  0  0  0  0  0
    1.2167  -13.0482   24.4696 C   0  0  0  0  0  0  0  0  0  0  0  0
  2  1  1  6
  2  3  1  0
  3  4  1  0
  4  5  1  0
  5  6  1  0
  6  7  1  1
  7  8  1  0
  8  9  2  0
  8 10  1  0
 10 11  2  0
 11 12  1  0
 12 13  1  0
 12 14  2  0
 14 15  1  0
 15 16  1  0
  6  2  1  0
 15 10  1  0
M  END
>  <inchikey>  (884) 
DADSFGDXNISQKR-UHFFFAOYSA-N

>  <tags>  (884) 
fragmenstein_placed,CpKRS_FrAncestor_bulkdock_iter2

>  <ref_pdb>  (884) 
x0485c

>  <energy_score>  (884) 
-8.441982

>  <distance_score>  (884) 
0.563237

>  <HIPPO Pose ID>  (884) 
57047

>  <ref_mols>  (884) 
x0421a

>  <smiles>  (884) 
CC1CCCC1NC(=O)c1cc(Cl)cn1C

>  <HIPPO Compound ID>  (884) 
34669

>  <alias>  (884) 
DADSFGDXNISQKR-UHFFFAOYSA-N-P11

>  <subsites>  (884) 


>  <placement_batch>  (884) 
CpKRS_FrAncestor_bulkdock_iter2

>  <name>  (884) 
DADSFGDXNISQKR-UHFFFAOYSA-N-P11

$$$$
ZIEAMRPXZSKJBU-UHFFFAOYSA-N-P11
     RDKit          3D

 16 17  0  0  0  0  0  0  0  0999 V2000
    4.6375   -8.4559   25.0639 C   0  0  0  0  0  0  0  0  0  0  0  0
    5.1027   -9.4703   24.0340 C   0  0  2  0  0  0  0  0  0  0  0  0
    5.5836   -8.7687   22.7580 C   0  0  0  0  0  0  0  0  0  0  0  0
    5.2552   -9.7084   21.6026 C   0  0  0  0  0  0  0  0  0  0  0  0
    4.6248  -10.9407   22.2317 C   0  0  0  0  0  0  0  0  0  0  0  0
    4.0049  -10.4026   23.5189 C   0  0  1  0  0  0  0  0  0  0  0  0
    3.5720  -11.4302   24.4238 N   0  0  0  0  0  0  0  0  0  0  0  0
    4.1641  -12.8238   24.7137 C   0  0  0  0  0  0  0  0  0  0  0  0
    5.1385  -13.3260   24.3209 O   0  0  0  0  0  0  0  0  0  0  0  0
    3.2679  -13.5750   25.5852 C   0  0  0  0  0  0  0  0  0  0  0  0
    3.6181  -14.5282   26.5301 C   0  0  0  0  0  0  0  0  0  0  0  0
    2.4178  -14.9017   27.1485 C   0  0  0  0  0  0  0  0  0  0  0  0
    2.2543  -15.9438   28.4736 Cl  0  0  0  0  0  0  0  0  0  0  0  0
    1.3574  -14.2849   26.6242 N   0  0  0  0  0  0  0  0  0  0  0  0
    1.8923  -13.6029   25.5864 N   0  0  0  0  0  0  0  0  0  0  0  0
    0.9875  -13.0642   24.5973 C   0  0  0  0  0  0  0  0  0  0  0  0
  2  1  1  1
  2  3  1  0
  3  4  1  0
  4  5  1  0
  5  6  1  0
  6  7  1  1
  7  8  1  0
  8  9  2  0
  8 10  1  0
 10 11  2  0
 11 12  1  0
 12 13  1  0
 12 14  2  0
 14 15  1  0
 15 16  1  0
  6  2  1  0
 15 10  1  0
M  END
>  <inchikey>  (885) 
ZIEAMRPXZSKJBU-UHFFFAOYSA-N

>  <tags>  (885) 
fragmenstein_placed,CpKRS_FrAncestor_bulkdock_iter2

>  <ref_pdb>  (885) 
x0485c

>  <energy_score>  (885) 
-9.440157

>  <distance_score>  (885) 
0.455404

>  <HIPPO Pose ID>  (885) 
57051

>  <ref_mols>  (885) 
x0421a

>  <smiles>  (885) 
CC1CCCC1NC(=O)c1cc(Cl)nn1C

>  <HIPPO Compound ID>  (885) 
34670

>  <alias>  (885) 
ZIEAMRPXZSKJBU-UHFFFAOYSA-N-P11

>  <subsites>  (885) 


>  <placement_batch>  (885) 
CpKRS_FrAncestor_bulkdock_iter2

>  <name>  (885) 
ZIEAMRPXZSKJBU-UHFFFAOYSA-N-P11

$$$$
LVKDTLHAFWTMMI-UHFFFAOYSA-N-P12
     RDKit          3D

 14 15  0  0  0  0  0  0  0  0999 V2000
    4.9747  -11.5016   21.5817 C   0  0  0  0  0  0  0  0  0  0  0  0
    4.5884  -10.3118   22.4247 C   0  0  2  0  0  0  0  0  0  0  0  0
    5.3510   -9.0330   22.0708 C   0  0  0  0  0  0  0  0  0  0  0  0
    5.5463   -8.2950   23.3980 C   0  0  0  0  0  0  0  0  0  0  0  0
    4.7861   -9.1100   24.4437 C   0  0  0  0  0  0  0  0  0  0  0  0
    4.9087  -10.5224   23.8970 C   0  0  1  0  0  0  0  0  0  0  0  0
    4.0854  -11.5267   24.4969 N   0  0  0  0  0  0  0  0  0  0  0  0
    4.3871  -13.0014   24.8292 C   0  0  0  0  0  0  0  0  0  0  0  0
    5.3265  -13.6510   24.5971 O   0  0  0  0  0  0  0  0  0  0  0  0
    3.2734  -13.5705   25.6001 C   0  0  0  0  0  0  0  0  0  0  0  0
    3.3102  -14.7190   26.4283 C   0  0  0  0  0  0  0  0  0  0  0  0
    2.0692  -14.7619   26.9999 C   0  0  0  0  0  0  0  0  0  0  0  0
    1.3065  -13.7555   26.5101 O   0  0  0  0  0  0  0  0  0  0  0  0
    2.0552  -13.0010   25.6216 N   0  0  0  0  0  0  0  0  0  0  0  0
  2  1  1  6
  2  3  1  0
  3  4  1  0
  4  5  1  0
  5  6  1  0
  6  7  1  1
  7  8  1  0
  8  9  2  0
  8 10  1  0
 10 11  1  0
 11 12  2  0
 12 13  1  0
 13 14  1  0
  6  2  1  0
 14 10  2  0
M  END
>  <inchikey>  (886) 
LVKDTLHAFWTMMI-UHFFFAOYSA-N

>  <tags>  (886) 
fragmenstein_placed,CpKRS_FrAncestor_bulkdock_iter2

>  <ref_pdb>  (886) 
x0485c

>  <energy_score>  (886) 
-15.968364

>  <distance_score>  (886) 
0.411401

>  <HIPPO Pose ID>  (886) 
57060

>  <ref_mols>  (886) 
x0421b

>  <smiles>  (886) 
CC1CCCC1NC(=O)c1ccon1

>  <HIPPO Compound ID>  (886) 
34672

>  <alias>  (886) 
LVKDTLHAFWTMMI-UHFFFAOYSA-N-P12

>  <subsites>  (886) 


>  <placement_batch>  (886) 
CpKRS_FrAncestor_bulkdock_iter2

>  <name>  (886) 
LVKDTLHAFWTMMI-UHFFFAOYSA-N-P12

$$$$
PGYDUQICEITYGW-UHFFFAOYSA-N-P13
     RDKit          3D

 14 15  0  0  0  0  0  0  0  0999 V2000
    5.1332  -11.6698   21.7089 C   0  0  0  0  0  0  0  0  0  0  0  0
    4.6878  -10.4442   22.4682 C   0  0  2  0  0  0  0  0  0  0  0  0
    5.3980   -9.1570   22.0429 C   0  0  0  0  0  0  0  0  0  0  0  0
    5.5273   -8.3201   23.3202 C   0  0  0  0  0  0  0  0  0  0  0  0
    4.8033   -9.1062   24.4125 C   0  0  0  0  0  0  0  0  0  0  0  0
    4.9919  -10.5416   23.9547 C   0  0  1  0  0  0  0  0  0  0  0  0
    4.1993  -11.5260   24.6215 N   0  0  0  0  0  0  0  0  0  0  0  0
    4.4771  -13.0152   24.8959 C   0  0  0  0  0  0  0  0  0  0  0  0
    5.4280  -13.6565   24.6899 O   0  0  0  0  0  0  0  0  0  0  0  0
    3.3173  -13.6226   25.5899 C   0  0  0  0  0  0  0  0  0  0  0  0
    3.3769  -14.8798   26.2861 C   0  0  0  0  0  0  0  0  0  0  0  0
    2.1822  -15.1584   26.9068 C   0  0  0  0  0  0  0  0  0  0  0  0
    1.0818  -13.9070   26.5461 S   0  0  0  0  0  0  0  0  0  0  0  0
    2.1287  -12.9991   25.6365 N   0  0  0  0  0  0  0  0  0  0  0  0
  2  1  1  6
  2  3  1  0
  3  4  1  0
  4  5  1  0
  5  6  1  0
  6  7  1  1
  7  8  1  0
  8  9  2  0
  8 10  1  0
 10 11  1  0
 11 12  2  0
 12 13  1  0
 13 14  1  0
  6  2  1  0
 14 10  2  0
M  END
>  <inchikey>  (887) 
PGYDUQICEITYGW-UHFFFAOYSA-N

>  <tags>  (887) 
fragmenstein_placed,CpKRS_FrAncestor_bulkdock_iter2

>  <ref_pdb>  (887) 
x0485c

>  <energy_score>  (887) 
-26.033059

>  <distance_score>  (887) 
0.41681

>  <HIPPO Pose ID>  (887) 
57065

>  <ref_mols>  (887) 
x0421c

>  <smiles>  (887) 
CC1CCCC1NC(=O)c1ccsn1

>  <HIPPO Compound ID>  (887) 
34673

>  <alias>  (887) 
PGYDUQICEITYGW-UHFFFAOYSA-N-P13

>  <subsites>  (887) 


>  <placement_batch>  (887) 
CpKRS_FrAncestor_bulkdock_iter2

>  <name>  (887) 
PGYDUQICEITYGW-UHFFFAOYSA-N-P13

$$$$
DBZNOXSHKXZZPB-UHFFFAOYSA-N-P11
     RDKit          3D

 15 16  0  0  0  0  0  0  0  0999 V2000
    3.1314   -9.2678   24.1922 C   0  0  0  0  0  0  0  0  0  0  0  0
    4.6320   -9.5333   24.0773 C   0  0  2  0  0  0  0  0  0  0  0  0
    5.2686   -8.7791   22.9066 C   0  0  0  0  0  0  0  0  0  0  0  0
    5.2048   -9.7237   21.7040 C   0  0  0  0  0  0  0  0  0  0  0  0
    4.8003  -11.0949   22.2412 C   0  0  0  0  0  0  0  0  0  0  0  0
    4.9912  -10.9823   23.7452 C   0  0  2  0  0  0  0  0  0  0  0  0
    4.2739  -11.9612   24.4958 N   0  0  0  0  0  0  0  0  0  0  0  0
    4.7502  -13.2649   25.1425 C   0  0  0  0  0  0  0  0  0  0  0  0
    5.8196  -13.7150   25.2342 O   0  0  0  0  0  0  0  0  0  0  0  0
    3.5791  -13.8958   25.7677 C   0  0  0  0  0  0  0  0  0  0  0  0
    3.5873  -15.0375   26.5418 C   0  0  0  0  0  0  0  0  0  0  0  0
    2.2841  -15.2664   26.8496 N   0  0  0  0  0  0  0  0  0  0  0  0
    1.7708  -16.4246   27.5272 C   0  0  0  0  0  0  0  0  0  0  0  0
    1.5374  -14.2452   26.3386 C   0  0  0  0  0  0  0  0  0  0  0  0
    2.2807  -13.3834   25.6819 N   0  0  0  0  0  0  0  0  0  0  0  0
  2  1  1  6
  2  3  1  0
  3  4  1  0
  4  5  1  0
  5  6  1  0
  6  7  1  1
  7  8  1  0
  8  9  2  0
  8 10  1  0
 10 11  2  0
 11 12  1  0
 12 13  1  0
 12 14  1  0
 14 15  2  0
  6  2  1  0
 15 10  1  0
M  END
>  <inchikey>  (888) 
DBZNOXSHKXZZPB-UHFFFAOYSA-N

>  <tags>  (888) 
fragmenstein_placed,CpKRS_FrAncestor_bulkdock_iter2

>  <ref_pdb>  (888) 
x0485c

>  <energy_score>  (888) 
-4.043097

>  <distance_score>  (888) 
0.57795

>  <HIPPO Pose ID>  (888) 
57079

>  <ref_mols>  (888) 
x0421a

>  <smiles>  (888) 
CC1CCCC1NC(=O)c1cn(C)cn1

>  <HIPPO Compound ID>  (888) 
34677

>  <alias>  (888) 
DBZNOXSHKXZZPB-UHFFFAOYSA-N-P11

>  <subsites>  (888) 


>  <placement_batch>  (888) 
CpKRS_FrAncestor_bulkdock_iter2

>  <name>  (888) 
DBZNOXSHKXZZPB-UHFFFAOYSA-N-P11

$$$$
PTKRVXJPKALGCQ-UHFFFAOYSA-N-P12
     RDKit          3D

 16 17  0  0  0  0  0  0  0  0999 V2000
    5.0629   -8.4469   25.0498 C   0  0  0  0  0  0  0  0  0  0  0  0
    4.6256   -9.1194   23.7604 C   0  0  1  0  0  0  0  0  0  0  0  0
    5.3446   -8.4979   22.5639 C   0  0  0  0  0  0  0  0  0  0  0  0
    5.3557   -9.5714   21.4878 C   0  0  0  0  0  0  0  0  0  0  0  0
    4.8611  -10.8519   22.1397 C   0  0  0  0  0  0  0  0  0  0  0  0
    5.0026  -10.5985   23.6357 C   0  0  2  0  0  0  0  0  0  0  0  0
    4.1970  -11.5210   24.3782 N   0  0  0  0  0  0  0  0  0  0  0  0
    4.4320  -13.0037   24.7199 C   0  0  0  0  0  0  0  0  0  0  0  0
    5.3519  -13.6876   24.5178 O   0  0  0  0  0  0  0  0  0  0  0  0
    3.2991  -13.5331   25.4703 C   0  0  0  0  0  0  0  0  0  0  0  0
    3.3608  -14.5258   26.4800 C   0  0  0  0  0  0  0  0  0  0  0  0
    2.1760  -14.7684   27.0483 N   0  0  0  0  0  0  0  0  0  0  0  0
    1.3452  -13.9350   26.3985 N   0  0  0  0  0  0  0  0  0  0  0  0
   -0.0358  -13.8606   26.8045 C   0  0  0  0  0  0  0  0  0  0  0  0
    1.9482  -13.2649   25.3716 C   0  0  0  0  0  0  0  0  0  0  0  0
    1.0645  -12.2492   24.0187 Br  0  0  0  0  0  0  0  0  0  0  0  0
  2  1  1  1
  2  3  1  0
  3  4  1  0
  4  5  1  0
  5  6  1  0
  6  7  1  1
  7  8  1  0
  8  9  2  0
  8 10  1  0
 10 11  1  0
 11 12  2  0
 12 13  1  0
 13 14  1  0
 13 15  1  0
 15 16  1  0
  6  2  1  0
 15 10  2  0
M  END
>  <inchikey>  (889) 
PTKRVXJPKALGCQ-UHFFFAOYSA-N

>  <tags>  (889) 
fragmenstein_placed,CpKRS_FrAncestor_bulkdock_iter2

>  <ref_pdb>  (889) 
x0485c

>  <energy_score>  (889) 
-14.032445

>  <distance_score>  (889) 
0.414353

>  <HIPPO Pose ID>  (889) 
57092

>  <ref_mols>  (889) 
x0421b

>  <smiles>  (889) 
CC1CCCC1NC(=O)c1cnn(C)c1Br

>  <HIPPO Compound ID>  (889) 
34680

>  <alias>  (889) 
PTKRVXJPKALGCQ-UHFFFAOYSA-N-P12

>  <subsites>  (889) 


>  <placement_batch>  (889) 
CpKRS_FrAncestor_bulkdock_iter2

>  <name>  (889) 
PTKRVXJPKALGCQ-UHFFFAOYSA-N-P12

$$$$
BODIIZOTDMYRJU-UHFFFAOYSA-N-P12
     RDKit          3D

 16 17  0  0  0  0  0  0  0  0999 V2000
    4.9294   -8.4667   25.0533 C   0  0  0  0  0  0  0  0  0  0  0  0
    4.5830   -9.1306   23.7331 C   0  0  1  0  0  0  0  0  0  0  0  0
    5.3693   -8.4890   22.5923 C   0  0  0  0  0  0  0  0  0  0  0  0
    5.4146   -9.5375   21.4938 C   0  0  0  0  0  0  0  0  0  0  0  0
    4.9338  -10.8412   22.1098 C   0  0  0  0  0  0  0  0  0  0  0  0
    4.9860  -10.6034   23.6144 C   0  0  2  0  0  0  0  0  0  0  0  0
    4.1459  -11.5481   24.2874 N   0  0  0  0  0  0  0  0  0  0  0  0
    4.4427  -12.9760   24.7821 C   0  0  0  0  0  0  0  0  0  0  0  0
    5.3923  -13.6371   24.6526 O   0  0  0  0  0  0  0  0  0  0  0  0
    3.2995  -13.5144   25.5081 C   0  0  0  0  0  0  0  0  0  0  0  0
    3.3278  -14.5298   26.4968 C   0  0  0  0  0  0  0  0  0  0  0  0
    2.1281  -14.7753   27.0356 N   0  0  0  0  0  0  0  0  0  0  0  0
    1.3137  -13.9211   26.3841 N   0  0  0  0  0  0  0  0  0  0  0  0
   -0.0737  -13.8463   26.7696 C   0  0  0  0  0  0  0  0  0  0  0  0
    1.9586  -13.2315   25.4010 C   0  0  0  0  0  0  0  0  0  0  0  0
    1.0818  -12.2878   24.2819 Cl  0  0  0  0  0  0  0  0  0  0  0  0
  2  1  1  1
  2  3  1  0
  3  4  1  0
  4  5  1  0
  5  6  1  0
  6  7  1  1
  7  8  1  0
  8  9  2  0
  8 10  1  0
 10 11  1  0
 11 12  2  0
 12 13  1  0
 13 14  1  0
 13 15  1  0
 15 16  1  0
  6  2  1  0
 15 10  2  0
M  END
>  <inchikey>  (890) 
BODIIZOTDMYRJU-UHFFFAOYSA-N

>  <tags>  (890) 
fragmenstein_placed,CpKRS_FrAncestor_bulkdock_iter2

>  <ref_pdb>  (890) 
x0485c

>  <energy_score>  (890) 
-24.572496

>  <distance_score>  (890) 
0.432713

>  <HIPPO Pose ID>  (890) 
57096

>  <ref_mols>  (890) 
x0421b

>  <smiles>  (890) 
CC1CCCC1NC(=O)c1cnn(C)c1Cl

>  <HIPPO Compound ID>  (890) 
34681

>  <alias>  (890) 
BODIIZOTDMYRJU-UHFFFAOYSA-N-P12

>  <subsites>  (890) 


>  <placement_batch>  (890) 
CpKRS_FrAncestor_bulkdock_iter2

>  <name>  (890) 
BODIIZOTDMYRJU-UHFFFAOYSA-N-P12

$$$$
UVJSIPWXENOIFZ-UHFFFAOYSA-N-P12
     RDKit          3D

 15 16  0  0  0  0  0  0  0  0999 V2000
    4.9736  -11.5933   21.6255 C   0  0  0  0  0  0  0  0  0  0  0  0
    4.5908  -10.3745   22.4276 C   0  0  2  0  0  0  0  0  0  0  0  0
    5.3422   -9.1040   22.0213 C   0  0  0  0  0  0  0  0  0  0  0  0
    5.5471   -8.3174   23.3193 C   0  0  0  0  0  0  0  0  0  0  0  0
    4.8086   -9.1011   24.4030 C   0  0  0  0  0  0  0  0  0  0  0  0
    4.9300  -10.5302   23.9018 C   0  0  1  0  0  0  0  0  0  0  0  0
    4.1196  -11.5075   24.5597 N   0  0  0  0  0  0  0  0  0  0  0  0
    4.4086  -12.9797   24.9007 C   0  0  0  0  0  0  0  0  0  0  0  0
    5.3799  -13.6083   24.7689 O   0  0  0  0  0  0  0  0  0  0  0  0
    3.2155  -13.5571   25.5105 C   0  0  0  0  0  0  0  0  0  0  0  0
    3.1499  -14.7311   26.2227 C   0  0  0  0  0  0  0  0  0  0  0  0
    1.8730  -14.8870   26.6637 O   0  0  0  0  0  0  0  0  0  0  0  0
    1.2146  -13.7885   26.1812 C   0  0  0  0  0  0  0  0  0  0  0  0
   -0.4642  -13.5261   26.4211 Cl  0  0  0  0  0  0  0  0  0  0  0  0
    1.9640  -12.9664   25.4732 N   0  0  0  0  0  0  0  0  0  0  0  0
  2  1  1  6
  2  3  1  0
  3  4  1  0
  4  5  1  0
  5  6  1  0
  6  7  1  1
  7  8  1  0
  8  9  2  0
  8 10  1  0
 10 11  2  0
 11 12  1  0
 12 13  1  0
 13 14  1  0
 13 15  2  0
  6  2  1  0
 15 10  1  0
M  END
>  <inchikey>  (891) 
UVJSIPWXENOIFZ-UHFFFAOYSA-N

>  <tags>  (891) 
fragmenstein_placed,CpKRS_FrAncestor_bulkdock_iter2

>  <ref_pdb>  (891) 
x0485c

>  <energy_score>  (891) 
-17.803442

>  <distance_score>  (891) 
0.438073

>  <HIPPO Pose ID>  (891) 
57100

>  <ref_mols>  (891) 
x0421b

>  <smiles>  (891) 
CC1CCCC1NC(=O)c1coc(Cl)n1

>  <HIPPO Compound ID>  (891) 
34682

>  <alias>  (891) 
UVJSIPWXENOIFZ-UHFFFAOYSA-N-P12

>  <subsites>  (891) 


>  <placement_batch>  (891) 
CpKRS_FrAncestor_bulkdock_iter2

>  <name>  (891) 
UVJSIPWXENOIFZ-UHFFFAOYSA-N-P12

$$$$
CCQLPTBUFXIORY-UHFFFAOYSA-N-P14
     RDKit          3D

 15 16  0  0  0  0  0  0  0  0999 V2000
    3.2518   -9.1599   24.1997 C   0  0  0  0  0  0  0  0  0  0  0  0
    4.7098   -9.5301   23.9251 C   0  0  2  0  0  0  0  0  0  0  0  0
    5.2777   -8.7160   22.7603 C   0  0  0  0  0  0  0  0  0  0  0  0
    5.1241   -9.5902   21.5145 C   0  0  0  0  0  0  0  0  0  0  0  0
    4.5732  -10.9342   21.9796 C   0  0  0  0  0  0  0  0  0  0  0  0
    4.9160  -10.9758   23.4546 C   0  0  2  0  0  0  0  0  0  0  0  0
    4.1736  -11.9388   24.2026 N   0  0  0  0  0  0  0  0  0  0  0  0
    4.6446  -13.1683   24.9890 C   0  0  0  0  0  0  0  0  0  0  0  0
    5.7043  -13.6385   25.0907 O   0  0  0  0  0  0  0  0  0  0  0  0
    3.4899  -13.6684   25.7500 C   0  0  0  0  0  0  0  0  0  0  0  0
    3.5635  -14.6469   26.7274 C   0  0  0  0  0  0  0  0  0  0  0  0
    2.0326  -14.8515   27.4677 S   0  0  0  0  0  0  0  0  0  0  0  0
    1.3908  -13.6881   26.4035 C   0  0  0  0  0  0  0  0  0  0  0  0
   -0.4748  -13.2681   26.3335 Br  0  0  0  0  0  0  0  0  0  0  0  0
    2.2218  -13.0919   25.5897 N   0  0  0  0  0  0  0  0  0  0  0  0
  2  1  1  6
  2  3  1  0
  3  4  1  0
  4  5  1  0
  5  6  1  0
  6  7  1  1
  7  8  1  0
  8  9  2  0
  8 10  1  0
 10 11  2  0
 11 12  1  0
 12 13  1  0
 13 14  1  0
 13 15  2  0
  6  2  1  0
 15 10  1  0
M  END
>  <inchikey>  (892) 
CCQLPTBUFXIORY-UHFFFAOYSA-N

>  <tags>  (892) 
fragmenstein_placed,CpKRS_FrAncestor_bulkdock_iter2

>  <ref_pdb>  (892) 
x0485c

>  <energy_score>  (892) 
-71.684974

>  <distance_score>  (892) 
0.362624

>  <HIPPO Pose ID>  (892) 
57106

>  <ref_mols>  (892) 
x0421d

>  <smiles>  (892) 
CC1CCCC1NC(=O)c1csc(Br)n1

>  <HIPPO Compound ID>  (892) 
34683

>  <alias>  (892) 
CCQLPTBUFXIORY-UHFFFAOYSA-N-P14

>  <subsites>  (892) 


>  <placement_batch>  (892) 
CpKRS_FrAncestor_bulkdock_iter2

>  <name>  (892) 
CCQLPTBUFXIORY-UHFFFAOYSA-N-P14

$$$$
WPOJZVDWXGKTCD-UHFFFAOYSA-N-P12
     RDKit          3D

 15 16  0  0  0  0  0  0  0  0999 V2000
    3.7429   -8.9522   24.4742 C   0  0  0  0  0  0  0  0  0  0  0  0
    5.0659   -9.5132   23.9657 C   0  0  2  0  0  0  0  0  0  0  0  0
    5.5650   -8.7201   22.7618 C   0  0  0  0  0  0  0  0  0  0  0  0
    4.8104   -9.3088   21.5749 C   0  0  0  0  0  0  0  0  0  0  0  0
    4.3606  -10.7101   21.9913 C   0  0  0  0  0  0  0  0  0  0  0  0
    4.9531  -10.9215   23.3730 C   0  0  2  0  0  0  0  0  0  0  0  0
    4.2312  -11.8574   24.1777 N   0  0  0  0  0  0  0  0  0  0  0  0
    4.6927  -13.1541   24.8543 C   0  0  0  0  0  0  0  0  0  0  0  0
    5.7518  -13.6298   24.9300 O   0  0  0  0  0  0  0  0  0  0  0  0
    3.5383  -13.7387   25.5525 C   0  0  0  0  0  0  0  0  0  0  0  0
    3.6405  -14.7823   26.4570 C   0  0  0  0  0  0  0  0  0  0  0  0
    2.1214  -15.0751   27.1819 S   0  0  0  0  0  0  0  0  0  0  0  0
    1.4455  -13.8606   26.2082 C   0  0  0  0  0  0  0  0  0  0  0  0
   -0.2382  -13.5455   26.2904 Cl  0  0  0  0  0  0  0  0  0  0  0  0
    2.2463  -13.2200   25.3925 N   0  0  0  0  0  0  0  0  0  0  0  0
  2  1  1  6
  2  3  1  0
  3  4  1  0
  4  5  1  0
  5  6  1  0
  6  7  1  1
  7  8  1  0
  8  9  2  0
  8 10  1  0
 10 11  2  0
 11 12  1  0
 12 13  1  0
 13 14  1  0
 13 15  2  0
  6  2  1  0
 15 10  1  0
M  END
>  <inchikey>  (893) 
WPOJZVDWXGKTCD-UHFFFAOYSA-N

>  <tags>  (893) 
fragmenstein_placed,CpKRS_FrAncestor_bulkdock_iter2

>  <ref_pdb>  (893) 
x0485c

>  <energy_score>  (893) 
-74.650587

>  <distance_score>  (893) 
0.395313

>  <HIPPO Pose ID>  (893) 
57108

>  <ref_mols>  (893) 
x0421b

>  <smiles>  (893) 
CC1CCCC1NC(=O)c1csc(Cl)n1

>  <HIPPO Compound ID>  (893) 
34684

>  <alias>  (893) 
WPOJZVDWXGKTCD-UHFFFAOYSA-N-P12

>  <subsites>  (893) 


>  <placement_batch>  (893) 
CpKRS_FrAncestor_bulkdock_iter2

>  <name>  (893) 
WPOJZVDWXGKTCD-UHFFFAOYSA-N-P12

$$$$
WHPMFELZNOEWDC-UHFFFAOYSA-N-P13
     RDKit          3D

 16 17  0  0  0  0  0  0  0  0999 V2000
    5.1523  -11.6794   21.6959 C   0  0  0  0  0  0  0  0  0  0  0  0
    4.7145  -10.4605   22.4684 C   0  0  2  0  0  0  0  0  0  0  0  0
    5.4132   -9.1663   22.0486 C   0  0  0  0  0  0  0  0  0  0  0  0
    5.5304   -8.3343   23.3307 C   0  0  0  0  0  0  0  0  0  0  0  0
    4.8311   -9.1435   24.4232 C   0  0  0  0  0  0  0  0  0  0  0  0
    5.0378  -10.5714   23.9495 C   0  0  1  0  0  0  0  0  0  0  0  0
    4.2620  -11.5763   24.6053 N   0  0  0  0  0  0  0  0  0  0  0  0
    4.6004  -13.0398   24.9413 C   0  0  0  0  0  0  0  0  0  0  0  0
    5.5928  -13.6360   24.8058 O   0  0  0  0  0  0  0  0  0  0  0  0
    3.4231  -13.6559   25.5512 C   0  0  0  0  0  0  0  0  0  0  0  0
    2.2119  -13.1135   25.5146 N   0  0  0  0  0  0  0  0  0  0  0  0
    1.4110  -13.9818   26.2004 C   0  0  0  0  0  0  0  0  0  0  0  0
   -0.4343  -13.7201   26.4076 Br  0  0  0  0  0  0  0  0  0  0  0  0
    2.1230  -15.0439   26.6928 C   0  0  0  0  0  0  0  0  0  0  0  0
    3.4010  -14.8367   26.2566 N   0  0  0  0  0  0  0  0  0  0  0  0
    4.5247  -15.7023   26.5203 C   0  0  0  0  0  0  0  0  0  0  0  0
  2  1  1  6
  2  3  1  0
  3  4  1  0
  4  5  1  0
  5  6  1  0
  6  7  1  1
  7  8  1  0
  8  9  2  0
  8 10  1  0
 10 11  2  0
 11 12  1  0
 12 13  1  0
 12 14  2  0
 14 15  1  0
 15 16  1  0
  6  2  1  0
 15 10  1  0
M  END
>  <inchikey>  (894) 
WHPMFELZNOEWDC-UHFFFAOYSA-N

>  <tags>  (894) 
fragmenstein_placed,CpKRS_FrAncestor_bulkdock_iter2

>  <ref_pdb>  (894) 
x0485c

>  <energy_score>  (894) 
-6.221856

>  <distance_score>  (894) 
0.368741

>  <HIPPO Pose ID>  (894) 
57113

>  <ref_mols>  (894) 
x0421c

>  <smiles>  (894) 
CC1CCCC1NC(=O)c1nc(Br)cn1C

>  <HIPPO Compound ID>  (894) 
34685

>  <alias>  (894) 
WHPMFELZNOEWDC-UHFFFAOYSA-N-P13

>  <subsites>  (894) 


>  <placement_batch>  (894) 
CpKRS_FrAncestor_bulkdock_iter2

>  <name>  (894) 
WHPMFELZNOEWDC-UHFFFAOYSA-N-P13

$$$$
GSWYMDKMVRYROV-UHFFFAOYSA-N-P13
     RDKit          3D

 16 17  0  0  0  0  0  0  0  0999 V2000
    4.6574   -8.4296   25.1125 C   0  0  0  0  0  0  0  0  0  0  0  0
    4.5028   -9.0835   23.7511 C   0  0  1  0  0  0  0  0  0  0  0  0
    5.3915   -8.4103   22.7065 C   0  0  0  0  0  0  0  0  0  0  0  0
    5.5365   -9.4379   21.5923 C   0  0  0  0  0  0  0  0  0  0  0  0
    5.1075  -10.7762   22.1771 C   0  0  0  0  0  0  0  0  0  0  0  0
    4.9924  -10.5274   23.6771 C   0  0  2  0  0  0  0  0  0  0  0  0
    4.1759  -11.5188   24.3047 N   0  0  0  0  0  0  0  0  0  0  0  0
    4.3987  -13.0266   24.4833 C   0  0  0  0  0  0  0  0  0  0  0  0
    5.2449  -13.7165   24.0818 O   0  0  0  0  0  0  0  0  0  0  0  0
    3.3679  -13.5456   25.3972 C   0  0  0  0  0  0  0  0  0  0  0  0
    2.1405  -12.9183   25.6130 N   0  0  0  0  0  0  0  0  0  0  0  0
    1.5491  -13.6291   26.5481 C   0  0  0  0  0  0  0  0  0  0  0  0
    2.3410  -14.6520   26.9820 N   0  0  0  0  0  0  0  0  0  0  0  0
    2.0693  -15.5178   28.0987 C   0  0  0  0  0  0  0  0  0  0  0  0
    3.4775  -14.6420   26.2292 C   0  0  0  0  0  0  0  0  0  0  0  0
    4.9552  -15.8164   26.3977 Br  0  0  0  0  0  0  0  0  0  0  0  0
  2  1  1  1
  2  3  1  0
  3  4  1  0
  4  5  1  0
  5  6  1  0
  6  7  1  6
  7  8  1  0
  8  9  2  0
  8 10  1  0
 10 11  1  0
 11 12  2  0
 12 13  1  0
 13 14  1  0
 13 15  1  0
 15 16  1  0
  6  2  1  0
 15 10  2  0
M  END
>  <inchikey>  (895) 
GSWYMDKMVRYROV-UHFFFAOYSA-N

>  <tags>  (895) 
fragmenstein_placed,CpKRS_FrAncestor_bulkdock_iter2

>  <ref_pdb>  (895) 
x0485c

>  <energy_score>  (895) 
-9.242146

>  <distance_score>  (895) 
0.417715

>  <HIPPO Pose ID>  (895) 
57133

>  <ref_mols>  (895) 
x0421c

>  <smiles>  (895) 
CC1CCCC1NC(=O)c1ncn(C)c1Br

>  <HIPPO Compound ID>  (895) 
34690

>  <alias>  (895) 
GSWYMDKMVRYROV-UHFFFAOYSA-N-P13

>  <subsites>  (895) 


>  <placement_batch>  (895) 
CpKRS_FrAncestor_bulkdock_iter2

>  <name>  (895) 
GSWYMDKMVRYROV-UHFFFAOYSA-N-P13

$$$$
ZXMFSVBTTSCQRN-UHFFFAOYSA-N-P14
     RDKit          3D

 15 16  0  0  0  0  0  0  0  0999 V2000
    3.9329  -11.7744   21.9166 C   0  0  0  0  0  0  0  0  0  0  0  0
    5.0802  -10.9435   22.4393 C   0  0  1  0  0  0  0  0  0  0  0  0
    5.2373   -9.6156   21.6826 C   0  0  0  0  0  0  0  0  0  0  0  0
    5.1819   -8.5191   22.7397 C   0  0  0  0  0  0  0  0  0  0  0  0
    4.3705   -9.1348   23.8669 C   0  0  0  0  0  0  0  0  0  0  0  0
    4.9064  -10.5561   23.9009 C   0  0  1  0  0  0  0  0  0  0  0  0
    4.1032  -11.4798   24.6423 N   0  0  0  0  0  0  0  0  0  0  0  0
    4.3866  -12.9303   25.0716 C   0  0  0  0  0  0  0  0  0  0  0  0
    5.3479  -13.5771   24.9567 O   0  0  0  0  0  0  0  0  0  0  0  0
    3.1968  -13.4089   25.8072 C   0  0  0  0  0  0  0  0  0  0  0  0
    1.9799  -12.6849   25.7551 N   0  0  0  0  0  0  0  0  0  0  0  0
    1.0930  -13.2833   26.5176 C   0  0  0  0  0  0  0  0  0  0  0  0
    1.6458  -14.6143   27.4329 S   0  0  0  0  0  0  0  0  0  0  0  0
    3.1581  -14.4866   26.6692 C   0  0  0  0  0  0  0  0  0  0  0  0
    4.5600  -15.7096   27.0691 Br  0  0  0  0  0  0  0  0  0  0  0  0
  2  1  1  6
  2  3  1  0
  3  4  1  0
  4  5  1  0
  5  6  1  0
  6  7  1  6
  7  8  1  0
  8  9  2  0
  8 10  1  0
 10 11  1  0
 11 12  2  0
 12 13  1  0
 13 14  1  0
 14 15  1  0
  6  2  1  0
 14 10  2  0
M  END
>  <inchikey>  (896) 
ZXMFSVBTTSCQRN-UHFFFAOYSA-N

>  <tags>  (896) 
fragmenstein_placed,CpKRS_FrAncestor_bulkdock_iter2

>  <ref_pdb>  (896) 
x0485c

>  <energy_score>  (896) 
-51.340196

>  <distance_score>  (896) 
0.472559

>  <HIPPO Pose ID>  (896) 
57138

>  <ref_mols>  (896) 
x0421d

>  <smiles>  (896) 
CC1CCCC1NC(=O)c1ncsc1Br

>  <HIPPO Compound ID>  (896) 
34691

>  <alias>  (896) 
ZXMFSVBTTSCQRN-UHFFFAOYSA-N-P14

>  <subsites>  (896) 


>  <placement_batch>  (896) 
CpKRS_FrAncestor_bulkdock_iter2

>  <name>  (896) 
ZXMFSVBTTSCQRN-UHFFFAOYSA-N-P14

$$$$
PGSZAPTXRMRLGW-UHFFFAOYSA-N-P14
     RDKit          3D

 15 16  0  0  0  0  0  0  0  0999 V2000
    3.8515  -11.8019   21.9601 C   0  0  0  0  0  0  0  0  0  0  0  0
    5.0548  -11.0212   22.4368 C   0  0  1  0  0  0  0  0  0  0  0  0
    5.2217   -9.6868   21.6926 C   0  0  0  0  0  0  0  0  0  0  0  0
    5.1792   -8.5968   22.7582 C   0  0  0  0  0  0  0  0  0  0  0  0
    4.4101   -9.2259   23.9074 C   0  0  0  0  0  0  0  0  0  0  0  0
    4.9460  -10.6485   23.9077 C   0  0  1  0  0  0  0  0  0  0  0  0
    4.1666  -11.5789   24.6677 N   0  0  0  0  0  0  0  0  0  0  0  0
    4.4768  -13.0222   25.1024 C   0  0  0  0  0  0  0  0  0  0  0  0
    5.4454  -13.6562   24.9774 O   0  0  0  0  0  0  0  0  0  0  0  0
    3.3102  -13.5157   25.8583 C   0  0  0  0  0  0  0  0  0  0  0  0
    2.0829  -12.8084   25.8531 N   0  0  0  0  0  0  0  0  0  0  0  0
    1.2344  -13.4258   26.6449 C   0  0  0  0  0  0  0  0  0  0  0  0
    1.8325  -14.7765   27.5077 S   0  0  0  0  0  0  0  0  0  0  0  0
    3.3166  -14.6055   26.7026 C   0  0  0  0  0  0  0  0  0  0  0  0
    4.5660  -15.7228   27.0576 Cl  0  0  0  0  0  0  0  0  0  0  0  0
  2  1  1  6
  2  3  1  0
  3  4  1  0
  4  5  1  0
  5  6  1  0
  6  7  1  1
  7  8  1  0
  8  9  2  0
  8 10  1  0
 10 11  1  0
 11 12  2  0
 12 13  1  0
 13 14  1  0
 14 15  1  0
  6  2  1  0
 14 10  2  0
M  END
>  <inchikey>  (897) 
PGSZAPTXRMRLGW-UHFFFAOYSA-N

>  <tags>  (897) 
fragmenstein_placed,CpKRS_FrAncestor_bulkdock_iter2

>  <ref_pdb>  (897) 
x0485c

>  <energy_score>  (897) 
-54.118698

>  <distance_score>  (897) 
0.42903

>  <HIPPO Pose ID>  (897) 
57142

>  <ref_mols>  (897) 
x0421d

>  <smiles>  (897) 
CC1CCCC1NC(=O)c1ncsc1Cl

>  <HIPPO Compound ID>  (897) 
34692

>  <alias>  (897) 
PGSZAPTXRMRLGW-UHFFFAOYSA-N-P14

>  <subsites>  (897) 


>  <placement_batch>  (897) 
CpKRS_FrAncestor_bulkdock_iter2

>  <name>  (897) 
PGSZAPTXRMRLGW-UHFFFAOYSA-N-P14

$$$$
LFDWLUIXMKAVDB-UHFFFAOYSA-N-P12
     RDKit          3D

 15 16  0  0  0  0  0  0  0  0999 V2000
    4.8103  -11.5301   21.8084 C   0  0  0  0  0  0  0  0  0  0  0  0
    4.2848  -10.1845   22.2812 C   0  0  2  0  0  0  0  0  0  0  0  0
    5.3226   -9.0801   22.0074 C   0  0  0  0  0  0  0  0  0  0  0  0
    5.6734   -8.4763   23.3612 C   0  0  0  0  0  0  0  0  0  0  0  0
    5.2636   -9.5314   24.3736 C   0  0  0  0  0  0  0  0  0  0  0  0
    3.9772  -10.0893   23.7827 C   0  0  2  0  0  0  0  0  0  0  0  0
    3.4674  -11.2862   24.3973 N   0  0  0  0  0  0  0  0  0  0  0  0
    4.1821  -12.6013   24.7772 C   0  0  0  0  0  0  0  0  0  0  0  0
    5.2777  -12.9495   24.5818 O   0  0  0  0  0  0  0  0  0  0  0  0
    3.2263  -13.4666   25.4972 C   0  0  0  0  0  0  0  0  0  0  0  0
    1.9128  -13.1532   25.5417 N   0  0  0  0  0  0  0  0  0  0  0  0
    1.3110  -14.1228   26.3249 O   0  0  0  0  0  0  0  0  0  0  0  0
    2.2433  -15.0171   26.7282 C   0  0  0  0  0  0  0  0  0  0  0  0
    3.4563  -14.6584   26.2176 C   0  0  0  0  0  0  0  0  0  0  0  0
    5.0665  -15.5643   26.4664 Br  0  0  0  0  0  0  0  0  0  0  0  0
  2  1  1  1
  2  3  1  0
  3  4  1  0
  4  5  1  0
  5  6  1  0
  6  7  1  1
  7  8  1  0
  8  9  2  0
  8 10  1  0
 10 11  2  0
 11 12  1  0
 12 13  1  0
 13 14  2  0
 14 15  1  0
  6  2  1  0
 14 10  1  0
M  END
>  <inchikey>  (898) 
LFDWLUIXMKAVDB-UHFFFAOYSA-N

>  <tags>  (898) 
fragmenstein_placed,CpKRS_FrAncestor_bulkdock_iter2

>  <ref_pdb>  (898) 
x0485c

>  <energy_score>  (898) 
-5.520237

>  <distance_score>  (898) 
0.579101

>  <HIPPO Pose ID>  (898) 
57144

>  <ref_mols>  (898) 
x0421b

>  <smiles>  (898) 
CC1CCCC1NC(=O)c1nocc1Br

>  <HIPPO Compound ID>  (898) 
34693

>  <alias>  (898) 
LFDWLUIXMKAVDB-UHFFFAOYSA-N-P12

>  <subsites>  (898) 


>  <placement_batch>  (898) 
CpKRS_FrAncestor_bulkdock_iter2

>  <name>  (898) 
LFDWLUIXMKAVDB-UHFFFAOYSA-N-P12

$$$$
PIAHJRFYPQURHP-UHFFFAOYSA-N-P14
     RDKit          3D

 18 19  0  0  0  0  0  0  0  0999 V2000
    3.7851  -11.8872   22.0101 C   0  0  0  0  0  0  0  0  0  0  0  0
    5.0060  -11.1247   22.4663 C   0  0  1  0  0  0  0  0  0  0  0  0
    5.1309   -9.7553   21.7772 C   0  0  0  0  0  0  0  0  0  0  0  0
    5.3615   -8.7476   22.8936 C   0  0  0  0  0  0  0  0  0  0  0  0
    4.6314   -9.3574   24.0756 C   0  0  0  0  0  0  0  0  0  0  0  0
    4.9822  -10.8371   23.9628 C   0  0  1  0  0  0  0  0  0  0  0  0
    4.0938  -11.6892   24.7013 N   0  0  0  0  0  0  0  0  0  0  0  0
    4.2745  -13.1464   25.1914 C   0  0  0  0  0  0  0  0  0  0  0  0
    5.2022  -13.8525   25.1375 O   0  0  0  0  0  0  0  0  0  0  0  0
    3.0175  -13.5294   25.8958 C   0  0  0  0  0  0  0  0  0  0  0  0
    1.9281  -12.7601   25.6597 N   0  0  0  0  0  0  0  0  0  0  0  0
    0.9220  -13.2398   26.4447 O   0  0  0  0  0  0  0  0  0  0  0  0
    1.3826  -14.2651   27.1723 C   0  0  0  0  0  0  0  0  0  0  0  0
    2.7064  -14.5409   26.8835 C   0  0  0  0  0  0  0  0  0  0  0  0
    3.4874  -15.6305   27.6034 C   0  0  0  0  0  0  0  0  0  0  0  0
    3.1869  -15.5512   29.1252 C   0  0  0  0  0  0  0  0  0  0  0  0
    2.9856  -17.0286   27.2334 C   0  0  0  0  0  0  0  0  0  0  0  0
    4.9891  -15.6099   27.3608 C   0  0  0  0  0  0  0  0  0  0  0  0
  2  1  1  6
  2  3  1  0
  3  4  1  0
  4  5  1  0
  5  6  1  0
  6  7  1  1
  7  8  1  0
  8  9  2  0
  8 10  1  0
 10 11  2  0
 11 12  1  0
 12 13  1  0
 13 14  2  0
 14 15  1  0
 15 16  1  0
 15 17  1  0
 15 18  1  0
  6  2  1  0
 14 10  1  0
M  END
>  <inchikey>  (899) 
PIAHJRFYPQURHP-UHFFFAOYSA-N

>  <tags>  (899) 
fragmenstein_placed,CpKRS_FrAncestor_bulkdock_iter2

>  <ref_pdb>  (899) 
x0485c

>  <energy_score>  (899) 
-29.356145

>  <distance_score>  (899) 
0.633239

>  <HIPPO Pose ID>  (899) 
57150

>  <ref_mols>  (899) 
x0421d

>  <smiles>  (899) 
CC1CCCC1NC(=O)c1nocc1C(C)(C)C

>  <HIPPO Compound ID>  (899) 
34694

>  <alias>  (899) 
PIAHJRFYPQURHP-UHFFFAOYSA-N-P14

>  <subsites>  (899) 


>  <placement_batch>  (899) 
CpKRS_FrAncestor_bulkdock_iter2

>  <name>  (899) 
PIAHJRFYPQURHP-UHFFFAOYSA-N-P14

$$$$
KYTZQXWAKFCFST-UHFFFAOYSA-N-P13
     RDKit          3D

 15 16  0  0  0  0  0  0  0  0999 V2000
    4.7647  -11.5579   21.7349 C   0  0  0  0  0  0  0  0  0  0  0  0
    5.4428  -10.4526   22.5018 C   0  0  1  0  0  0  0  0  0  0  0  0
    5.0513   -9.0445   22.0593 C   0  0  0  0  0  0  0  0  0  0  0  0
    5.4257   -8.2094   23.2722 C   0  0  0  0  0  0  0  0  0  0  0  0
    4.8702   -9.0439   24.4154 C   0  0  0  0  0  0  0  0  0  0  0  0
    5.2506  -10.4725   24.0273 C   0  0  1  0  0  0  0  0  0  0  0  0
    4.3437  -11.4733   24.5190 N   0  0  0  0  0  0  0  0  0  0  0  0
    4.5698  -12.9691   24.8189 C   0  0  0  0  0  0  0  0  0  0  0  0
    5.5046  -13.6416   24.6419 O   0  0  0  0  0  0  0  0  0  0  0  0
    3.3872  -13.5201   25.5050 C   0  0  0  0  0  0  0  0  0  0  0  0
    2.1949  -12.8867   25.4882 N   0  0  0  0  0  0  0  0  0  0  0  0
    1.3473  -13.6565   26.2672 O   0  0  0  0  0  0  0  0  0  0  0  0
    2.0228  -14.7254   26.7488 C   0  0  0  0  0  0  0  0  0  0  0  0
    3.3116  -14.6969   26.2929 C   0  0  0  0  0  0  0  0  0  0  0  0
    4.5427  -15.7994   26.6537 Cl  0  0  0  0  0  0  0  0  0  0  0  0
  2  1  1  6
  2  3  1  0
  3  4  1  0
  4  5  1  0
  5  6  1  0
  6  7  1  6
  7  8  1  0
  8  9  2  0
  8 10  1  0
 10 11  2  0
 11 12  1  0
 12 13  1  0
 13 14  2  0
 14 15  1  0
  6  2  1  0
 14 10  1  0
M  END
>  <inchikey>  (900) 
KYTZQXWAKFCFST-UHFFFAOYSA-N

>  <tags>  (900) 
fragmenstein_placed,CpKRS_FrAncestor_bulkdock_iter2

>  <ref_pdb>  (900) 
x0485c

>  <energy_score>  (900) 
-5.62866

>  <distance_score>  (900) 
0.412624

>  <HIPPO Pose ID>  (900) 
57153

>  <ref_mols>  (900) 
x0421c

>  <smiles>  (900) 
CC1CCCC1NC(=O)c1nocc1Cl

>  <HIPPO Compound ID>  (900) 
34695

>  <alias>  (900) 
KYTZQXWAKFCFST-UHFFFAOYSA-N-P13

>  <subsites>  (900) 


>  <placement_batch>  (900) 
CpKRS_FrAncestor_bulkdock_iter2

>  <name>  (900) 
KYTZQXWAKFCFST-UHFFFAOYSA-N-P13

$$$$
RFEFCWZYVQTRJL-UHFFFAOYSA-N-P11
     RDKit          3D

 15 16  0  0  0  0  0  0  0  0999 V2000
    4.0827  -11.7480   21.9339 C   0  0  0  0  0  0  0  0  0  0  0  0
    5.2116  -10.9448   22.5426 C   0  0  1  0  0  0  0  0  0  0  0  0
    5.3543   -9.5684   21.8743 C   0  0  0  0  0  0  0  0  0  0  0  0
    5.3737   -8.5597   23.0144 C   0  0  0  0  0  0  0  0  0  0  0  0
    4.5359   -9.2218   24.0969 C   0  0  0  0  0  0  0  0  0  0  0  0
    5.0208  -10.6613   24.0355 C   0  0  1  0  0  0  0  0  0  0  0  0
    4.1743  -11.6109   24.6909 N   0  0  0  0  0  0  0  0  0  0  0  0
    4.4507  -13.0610   25.1315 C   0  0  0  0  0  0  0  0  0  0  0  0
    5.4340  -13.6852   25.0999 O   0  0  0  0  0  0  0  0  0  0  0  0
    3.2059  -13.6182   25.7352 C   0  0  0  0  0  0  0  0  0  0  0  0
    2.0312  -12.9829   25.5395 N   0  0  0  0  0  0  0  0  0  0  0  0
    0.8241  -13.8159   26.3087 S   0  0  0  0  0  0  0  0  0  0  0  0
    1.8161  -15.0272   26.9706 C   0  0  0  0  0  0  0  0  0  0  0  0
    3.1082  -14.7701   26.5832 C   0  0  0  0  0  0  0  0  0  0  0  0
    4.5640  -15.7989   27.1757 Br  0  0  0  0  0  0  0  0  0  0  0  0
  2  1  1  6
  2  3  1  0
  3  4  1  0
  4  5  1  0
  5  6  1  0
  6  7  1  6
  7  8  1  0
  8  9  2  0
  8 10  1  0
 10 11  2  0
 11 12  1  0
 12 13  1  0
 13 14  2  0
 14 15  1  0
  6  2  1  0
 14 10  1  0
M  END
>  <inchikey>  (901) 
RFEFCWZYVQTRJL-UHFFFAOYSA-N

>  <tags>  (901) 
fragmenstein_placed,CpKRS_FrAncestor_bulkdock_iter2

>  <ref_pdb>  (901) 
x0485c

>  <energy_score>  (901) 
-15.682873

>  <distance_score>  (901) 
0.595551

>  <HIPPO Pose ID>  (901) 
57155

>  <ref_mols>  (901) 
x0421a

>  <smiles>  (901) 
CC1CCCC1NC(=O)c1nscc1Br

>  <HIPPO Compound ID>  (901) 
34696

>  <alias>  (901) 
RFEFCWZYVQTRJL-UHFFFAOYSA-N-P11

>  <subsites>  (901) 


>  <placement_batch>  (901) 
CpKRS_FrAncestor_bulkdock_iter2

>  <name>  (901) 
RFEFCWZYVQTRJL-UHFFFAOYSA-N-P11

$$$$
FRYXSEHUFVHNHO-UHFFFAOYSA-N-P13
     RDKit          3D

 15 16  0  0  0  0  0  0  0  0999 V2000
    3.2527   -9.1978   24.2914 C   0  0  0  0  0  0  0  0  0  0  0  0
    4.7416   -9.5170   24.1682 C   0  0  2  0  0  0  0  0  0  0  0  0
    5.3973   -8.7297   23.0304 C   0  0  0  0  0  0  0  0  0  0  0  0
    5.2807   -9.6134   21.7854 C   0  0  0  0  0  0  0  0  0  0  0  0
    4.8257  -10.9928   22.2627 C   0  0  0  0  0  0  0  0  0  0  0  0
    5.0520  -10.9618   23.7652 C   0  0  2  0  0  0  0  0  0  0  0  0
    4.3362  -11.9635   24.4961 N   0  0  0  0  0  0  0  0  0  0  0  0
    4.7492  -13.3873   24.9070 C   0  0  0  0  0  0  0  0  0  0  0  0
    5.7647  -13.9438   24.7833 O   0  0  0  0  0  0  0  0  0  0  0  0
    3.6450  -13.9938   25.6301 C   0  0  0  0  0  0  0  0  0  0  0  0
    2.3918  -13.4181   25.5958 O   0  0  0  0  0  0  0  0  0  0  0  0
    1.5930  -14.1571   26.4154 C   0  0  0  0  0  0  0  0  0  0  0  0
    2.2985  -15.1965   26.9762 C   0  0  0  0  0  0  0  0  0  0  0  0
    3.5995  -15.0875   26.4584 C   0  0  0  0  0  0  0  0  0  0  0  0
    4.6249  -15.8867   26.7701 F   0  0  0  0  0  0  0  0  0  0  0  0
  2  1  1  6
  2  3  1  0
  3  4  1  0
  4  5  1  0
  5  6  1  0
  6  7  1  1
  7  8  1  0
  8  9  2  0
  8 10  1  0
 10 11  1  0
 11 12  1  0
 12 13  2  0
 13 14  1  0
 14 15  1  0
  6  2  1  0
 14 10  2  0
M  END
>  <inchikey>  (902) 
FRYXSEHUFVHNHO-UHFFFAOYSA-N

>  <tags>  (902) 
fragmenstein_placed,CpKRS_FrAncestor_bulkdock_iter2

>  <ref_pdb>  (902) 
x0485c

>  <energy_score>  (902) 
-9.101828

>  <distance_score>  (902) 
0.353467

>  <HIPPO Pose ID>  (902) 
57161

>  <ref_mols>  (902) 
x0421c

>  <smiles>  (902) 
CC1CCCC1NC(=O)c1occc1F

>  <HIPPO Compound ID>  (902) 
34697

>  <alias>  (902) 
FRYXSEHUFVHNHO-UHFFFAOYSA-N-P13

>  <subsites>  (902) 


>  <placement_batch>  (902) 
CpKRS_FrAncestor_bulkdock_iter2

>  <name>  (902) 
FRYXSEHUFVHNHO-UHFFFAOYSA-N-P13

$$$$
VUMJPUSAXRKKPL-UHFFFAOYSA-N-P12
     RDKit          3D

 15 16  0  0  0  0  0  0  0  0999 V2000
    4.9636  -11.6280   21.6351 C   0  0  0  0  0  0  0  0  0  0  0  0
    4.5798  -10.4203   22.4529 C   0  0  2  0  0  0  0  0  0  0  0  0
    5.3030   -9.1371   22.0324 C   0  0  0  0  0  0  0  0  0  0  0  0
    5.5300   -8.3525   23.3273 C   0  0  0  0  0  0  0  0  0  0  0  0
    4.8280   -9.1495   24.4250 C   0  0  0  0  0  0  0  0  0  0  0  0
    4.9572  -10.5770   23.9180 C   0  0  1  0  0  0  0  0  0  0  0  0
    4.1818  -11.5697   24.5983 N   0  0  0  0  0  0  0  0  0  0  0  0
    4.4477  -13.0770   24.8138 C   0  0  0  0  0  0  0  0  0  0  0  0
    5.3751  -13.7272   24.5376 O   0  0  0  0  0  0  0  0  0  0  0  0
    3.3500  -13.6732   25.5696 C   0  0  0  0  0  0  0  0  0  0  0  0
    1.7348  -13.1194   25.4250 S   0  0  0  0  0  0  0  0  0  0  0  0
    1.1808  -14.2014   26.6300 C   0  0  0  0  0  0  0  0  0  0  0  0
    2.1892  -15.0220   27.0847 C   0  0  0  0  0  0  0  0  0  0  0  0
    3.4198  -14.7219   26.4566 C   0  0  0  0  0  0  0  0  0  0  0  0
    4.5515  -15.3778   26.7573 F   0  0  0  0  0  0  0  0  0  0  0  0
  2  1  1  6
  2  3  1  0
  3  4  1  0
  4  5  1  0
  5  6  1  0
  6  7  1  1
  7  8  1  0
  8  9  2  0
  8 10  1  0
 10 11  1  0
 11 12  1  0
 12 13  2  0
 13 14  1  0
 14 15  1  0
  6  2  1  0
 14 10  2  0
M  END
>  <inchikey>  (903) 
VUMJPUSAXRKKPL-UHFFFAOYSA-N

>  <tags>  (903) 
fragmenstein_placed,CpKRS_FrAncestor_bulkdock_iter2

>  <ref_pdb>  (903) 
x0485c

>  <energy_score>  (903) 
-3.314245

>  <distance_score>  (903) 
0.416336

>  <HIPPO Pose ID>  (903) 
57164

>  <ref_mols>  (903) 
x0421b

>  <smiles>  (903) 
CC1CCCC1NC(=O)c1sccc1F

>  <HIPPO Compound ID>  (903) 
34698

>  <alias>  (903) 
VUMJPUSAXRKKPL-UHFFFAOYSA-N-P12

>  <subsites>  (903) 


>  <placement_batch>  (903) 
CpKRS_FrAncestor_bulkdock_iter2

>  <name>  (903) 
VUMJPUSAXRKKPL-UHFFFAOYSA-N-P12

$$$$
GLPNZZGWMROAIE-UHFFFAOYSA-N-P44
     RDKit          3D

 17 18  0  0  0  0  0  0  0  0999 V2000
   -9.4298  -14.2683   49.6386 C   0  0  0  0  0  0  0  0  0  0  0  0
   -9.5502  -12.9109   48.9337 C   0  0  0  0  0  0  0  0  0  0  0  0
  -10.4655  -11.9871   49.7590 C   0  0  0  0  0  0  0  0  0  0  0  0
   -8.1703  -12.2598   48.7549 C   0  0  0  0  0  0  0  0  0  0  0  0
   -8.3312  -11.2989   47.5814 C   0  0  0  0  0  0  0  0  0  0  0  0
   -9.5195  -11.8074   46.7625 C   0  0  0  0  0  0  0  0  0  0  0  0
  -10.0078  -13.0826   47.4669 C   0  0  2  0  0  0  0  0  0  0  0  0
  -11.5018  -13.3468   47.2830 C   0  0  0  0  0  0  0  0  0  0  0  0
  -11.7728  -14.2348   46.1819 N   0  0  0  0  0  0  0  0  0  0  0  0
  -12.9857  -15.1460   45.9053 C   0  0  0  0  0  0  0  0  0  0  0  0
  -13.9197  -15.3791   46.5614 O   0  0  0  0  0  0  0  0  0  0  0  0
  -12.8383  -15.8231   44.6195 C   0  0  0  0  0  0  0  0  0  0  0  0
  -11.8556  -15.9075   43.6543 C   0  0  0  0  0  0  0  0  0  0  0  0
  -12.3978  -16.7625   42.6801 C   0  0  0  0  0  0  0  0  0  0  0  0
  -11.6851  -17.1801   41.2052 Cl  0  0  0  0  0  0  0  0  0  0  0  0
  -13.6159  -17.1889   42.9987 N   0  0  0  0  0  0  0  0  0  0  0  0
  -13.8976  -16.5913   44.2128 O   0  0  0  0  0  0  0  0  0  0  0  0
  1  2  1  0
  2  3  1  0
  2  4  1  0
  4  5  1  0
  5  6  1  0
  6  7  1  0
  7  8  1  1
  8  9  1  0
  9 10  1  0
 10 11  2  0
 10 12  1  0
 12 13  2  0
 13 14  1  0
 14 15  1  0
 14 16  2  0
 16 17  1  0
  7  2  1  0
 17 12  1  0
M  END
>  <inchikey>  (904) 
GLPNZZGWMROAIE-UHFFFAOYSA-N

>  <tags>  (904) 
fragmenstein_placed,CpKRS_FrAncestor_bulkdock_iter2

>  <ref_pdb>  (904) 
x0485c

>  <energy_score>  (904) 
-14.535962

>  <distance_score>  (904) 
0.816388

>  <HIPPO Pose ID>  (904) 
57174

>  <ref_mols>  (904) 
x0502b

>  <smiles>  (904) 
CC1(C)CCCC1CNC(=O)c1cc(Cl)no1

>  <HIPPO Compound ID>  (904) 
34700

>  <alias>  (904) 
GLPNZZGWMROAIE-UHFFFAOYSA-N-P44

>  <subsites>  (904) 


>  <placement_batch>  (904) 
CpKRS_FrAncestor_bulkdock_iter2

>  <name>  (904) 
GLPNZZGWMROAIE-UHFFFAOYSA-N-P44

$$$$
PWIOJMSZQMLUJR-UHFFFAOYSA-N-P44
     RDKit          3D

 16 17  0  0  0  0  0  0  0  0999 V2000
  -15.0539  -15.0090   43.7680 C   0  0  0  0  0  0  0  0  0  0  0  0
  -13.7307  -15.6719   43.3699 C   0  0  0  0  0  0  0  0  0  0  0  0
  -13.5190  -15.4369   41.8578 C   0  0  0  0  0  0  0  0  0  0  0  0
  -13.7550  -17.1755   43.6795 C   0  0  0  0  0  0  0  0  0  0  0  0
  -12.2923  -17.5993   43.7063 C   0  0  0  0  0  0  0  0  0  0  0  0
  -11.4787  -16.3345   43.9795 C   0  0  0  0  0  0  0  0  0  0  0  0
  -12.4876  -15.1861   44.1671 C   0  0  2  0  0  0  0  0  0  0  0  0
  -12.7319  -14.9257   45.6644 C   0  0  0  0  0  0  0  0  0  0  0  0
  -11.6283  -14.2338   46.2862 N   0  0  0  0  0  0  0  0  0  0  0  0
  -11.2198  -12.7467   46.2329 C   0  0  0  0  0  0  0  0  0  0  0  0
  -11.7537  -11.8339   45.7417 O   0  0  0  0  0  0  0  0  0  0  0  0
   -9.9939  -12.5386   47.0092 C   0  0  0  0  0  0  0  0  0  0  0  0
   -9.3809  -13.2619   48.0186 C   0  0  0  0  0  0  0  0  0  0  0  0
   -8.2162  -12.5827   48.4843 C   0  0  0  0  0  0  0  0  0  0  0  0
   -7.9229  -11.4210   47.9101 N   0  0  0  0  0  0  0  0  0  0  0  0
   -9.0621  -11.1193   46.7430 S   0  0  0  0  0  0  0  0  0  0  0  0
  1  2  1  0
  2  3  1  0
  2  4  1  0
  4  5  1  0
  5  6  1  0
  6  7  1  0
  7  8  1  1
  8  9  1  0
  9 10  1  0
 10 11  2  0
 10 12  1  0
 12 13  2  0
 13 14  1  0
 14 15  2  0
 15 16  1  0
  7  2  1  0
 16 12  1  0
M  END
>  <inchikey>  (905) 
PWIOJMSZQMLUJR-UHFFFAOYSA-N

>  <tags>  (905) 
fragmenstein_placed,CpKRS_FrAncestor_bulkdock_iter2

>  <ref_pdb>  (905) 
x0485c

>  <energy_score>  (905) 
-20.523984

>  <distance_score>  (905) 
0.417282

>  <HIPPO Pose ID>  (905) 
57180

>  <ref_mols>  (905) 
x0502b

>  <smiles>  (905) 
CC1(C)CCCC1CNC(=O)c1ccns1

>  <HIPPO Compound ID>  (905) 
34702

>  <alias>  (905) 
PWIOJMSZQMLUJR-UHFFFAOYSA-N-P44

>  <subsites>  (905) 


>  <placement_batch>  (905) 
CpKRS_FrAncestor_bulkdock_iter2

>  <name>  (905) 
PWIOJMSZQMLUJR-UHFFFAOYSA-N-P44

$$$$
GMCMNNSXYWSSJC-UHFFFAOYSA-N-P46
     RDKit          3D

 16 17  0  0  0  0  0  0  0  0999 V2000
    4.1163  -16.4294   26.4386 C   0  0  0  0  0  0  0  0  0  0  0  0
    3.3799  -15.3280   27.1435 C   0  0  0  0  0  0  0  0  0  0  0  0
    3.8171  -15.5060   28.5914 C   0  0  0  0  0  0  0  0  0  0  0  0
    1.8697  -15.4987   27.1485 C   0  0  0  0  0  0  0  0  0  0  0  0
    1.2815  -14.1009   27.0307 C   0  0  0  0  0  0  0  0  0  0  0  0
    2.1990  -13.4521   26.0265 C   0  0  0  0  0  0  0  0  0  0  0  0
    3.5865  -13.9398   26.4624 C   0  0  2  0  0  0  0  0  0  0  0  0
    4.6317  -13.7800   25.3537 C   0  0  0  0  0  0  0  0  0  0  0  0
    4.6792  -12.4547   24.7776 N   0  0  0  0  0  0  0  0  0  0  0  0
    4.9978  -12.0001   23.3465 C   0  0  0  0  0  0  0  0  0  0  0  0
    5.3478  -12.6123   22.4207 O   0  0  0  0  0  0  0  0  0  0  0  0
    4.8679  -10.5367   23.2334 C   0  0  0  0  0  0  0  0  0  0  0  0
    5.1231   -9.7549   22.0766 C   0  0  0  0  0  0  0  0  0  0  0  0
    4.9323   -8.4655   22.4833 C   0  0  0  0  0  0  0  0  0  0  0  0
    4.5677   -8.4527   23.7880 O   0  0  0  0  0  0  0  0  0  0  0  0
    4.5055   -9.7516   24.2653 N   0  0  0  0  0  0  0  0  0  0  0  0
  1  2  1  0
  2  3  1  0
  2  4  1  0
  4  5  1  0
  5  6  1  0
  6  7  1  0
  7  8  1  6
  8  9  1  0
  9 10  1  0
 10 11  2  0
 10 12  1  0
 12 13  1  0
 13 14  2  0
 14 15  1  0
 15 16  1  0
  7  2  1  0
 16 12  2  0
M  END
>  <inchikey>  (906) 
GMCMNNSXYWSSJC-UHFFFAOYSA-N

>  <tags>  (906) 
fragmenstein_placed,CpKRS_FrAncestor_bulkdock_iter2

>  <ref_pdb>  (906) 
x0485c

>  <energy_score>  (906) 
-20.749688

>  <distance_score>  (906) 
0.821553

>  <HIPPO Pose ID>  (906) 
57184

>  <ref_mols>  (906) 
x0502c

>  <smiles>  (906) 
CC1(C)CCCC1CNC(=O)c1ccon1

>  <HIPPO Compound ID>  (906) 
34703

>  <alias>  (906) 
GMCMNNSXYWSSJC-UHFFFAOYSA-N-P46

>  <subsites>  (906) 


>  <placement_batch>  (906) 
CpKRS_FrAncestor_bulkdock_iter2

>  <name>  (906) 
GMCMNNSXYWSSJC-UHFFFAOYSA-N-P46

$$$$
IBFPQIYTFMVYNP-UHFFFAOYSA-N-P45
     RDKit          3D

 16 17  0  0  0  0  0  0  0  0999 V2000
    2.5422  -16.5722   26.6716 C   0  0  0  0  0  0  0  0  0  0  0  0
    3.0418  -15.1683   26.9972 C   0  0  0  0  0  0  0  0  0  0  0  0
    4.4281  -15.4501   27.5668 C   0  0  0  0  0  0  0  0  0  0  0  0
    2.0281  -14.5993   28.0121 C   0  0  0  0  0  0  0  0  0  0  0  0
    1.0860  -13.7501   27.1699 C   0  0  0  0  0  0  0  0  0  0  0  0
    2.0111  -13.0401   26.2114 C   0  0  0  0  0  0  0  0  0  0  0  0
    2.9961  -14.1367   25.8047 C   0  0  1  0  0  0  0  0  0  0  0  0
    4.3286  -13.6608   25.2154 C   0  0  0  0  0  0  0  0  0  0  0  0
    4.3546  -12.3372   24.6502 N   0  0  0  0  0  0  0  0  0  0  0  0
    4.7355  -11.8619   23.2426 C   0  0  0  0  0  0  0  0  0  0  0  0
    5.0153  -12.4701   22.2910 O   0  0  0  0  0  0  0  0  0  0  0  0
    4.8225  -10.3830   23.2212 C   0  0  0  0  0  0  0  0  0  0  0  0
    5.0960   -9.6047   22.0426 C   0  0  0  0  0  0  0  0  0  0  0  0
    5.2742   -8.2773   22.3559 C   0  0  0  0  0  0  0  0  0  0  0  0
    5.1365   -8.1040   24.0448 S   0  0  0  0  0  0  0  0  0  0  0  0
    4.7353   -9.6758   24.3591 N   0  0  0  0  0  0  0  0  0  0  0  0
  1  2  1  0
  2  3  1  0
  2  4  1  0
  4  5  1  0
  5  6  1  0
  6  7  1  0
  7  8  1  1
  8  9  1  0
  9 10  1  0
 10 11  2  0
 10 12  1  0
 12 13  1  0
 13 14  2  0
 14 15  1  0
 15 16  1  0
  7  2  1  0
 16 12  2  0
M  END
>  <inchikey>  (907) 
IBFPQIYTFMVYNP-UHFFFAOYSA-N

>  <tags>  (907) 
fragmenstein_placed,CpKRS_FrAncestor_bulkdock_iter2

>  <ref_pdb>  (907) 
x0485c

>  <energy_score>  (907) 
-11.533376

>  <distance_score>  (907) 
0.59763

>  <HIPPO Pose ID>  (907) 
57185

>  <ref_mols>  (907) 
x0502a

>  <smiles>  (907) 
CC1(C)CCCC1CNC(=O)c1ccsn1

>  <HIPPO Compound ID>  (907) 
34704

>  <alias>  (907) 
IBFPQIYTFMVYNP-UHFFFAOYSA-N-P45

>  <subsites>  (907) 


>  <placement_batch>  (907) 
CpKRS_FrAncestor_bulkdock_iter2

>  <name>  (907) 
IBFPQIYTFMVYNP-UHFFFAOYSA-N-P45

$$$$
NLCPODVILGBEDX-UHFFFAOYSA-N-P44
     RDKit          3D

 17 18  0  0  0  0  0  0  0  0999 V2000
  -13.4697  -15.5044   41.8023 C   0  0  0  0  0  0  0  0  0  0  0  0
  -13.6942  -15.6654   43.3220 C   0  0  0  0  0  0  0  0  0  0  0  0
  -14.9848  -14.9253   43.6894 C   0  0  0  0  0  0  0  0  0  0  0  0
  -13.7891  -17.1520   43.6947 C   0  0  0  0  0  0  0  0  0  0  0  0
  -12.3482  -17.6426   43.7347 C   0  0  0  0  0  0  0  0  0  0  0  0
  -11.4788  -16.4105   43.9823 C   0  0  0  0  0  0  0  0  0  0  0  0
  -12.4307  -15.2050   44.1014 C   0  0  2  0  0  0  0  0  0  0  0  0
  -12.6724  -14.8465   45.5791 C   0  0  0  0  0  0  0  0  0  0  0  0
  -11.5112  -14.2593   46.2041 N   0  0  0  0  0  0  0  0  0  0  0  0
  -10.7950  -12.9284   45.9283 C   0  0  0  0  0  0  0  0  0  0  0  0
  -10.9803  -12.1284   45.1024 O   0  0  0  0  0  0  0  0  0  0  0  0
   -9.7696  -12.6623   46.9219 C   0  0  0  0  0  0  0  0  0  0  0  0
   -9.3326  -13.2865   48.0797 C   0  0  0  0  0  0  0  0  0  0  0  0
   -8.3355  -12.5680   48.7035 N   0  0  0  0  0  0  0  0  0  0  0  0
   -8.1378  -11.5486   47.9134 C   0  0  0  0  0  0  0  0  0  0  0  0
   -7.0268  -10.2844   48.1031 Cl  0  0  0  0  0  0  0  0  0  0  0  0
   -8.9577  -11.5483   46.8364 N   0  0  0  0  0  0  0  0  0  0  0  0
  1  2  1  0
  2  3  1  0
  2  4  1  0
  4  5  1  0
  5  6  1  0
  6  7  1  0
  7  8  1  1
  8  9  1  0
  9 10  1  0
 10 11  2  0
 10 12  1  0
 12 13  2  0
 13 14  1  0
 14 15  2  0
 15 16  1  0
 15 17  1  0
  7  2  1  0
 17 12  1  0
M  END
>  <inchikey>  (908) 
NLCPODVILGBEDX-UHFFFAOYSA-N

>  <tags>  (908) 
fragmenstein_placed,CpKRS_FrAncestor_bulkdock_iter2

>  <ref_pdb>  (908) 
x0485c

>  <energy_score>  (908) 
-19.195003

>  <distance_score>  (908) 
0.493103

>  <HIPPO Pose ID>  (908) 
57189

>  <ref_mols>  (908) 
x0502b

>  <smiles>  (908) 
CC1(C)CCCC1CNC(=O)c1cnc(Cl)[nH]1

>  <HIPPO Compound ID>  (908) 
34705

>  <alias>  (908) 
NLCPODVILGBEDX-UHFFFAOYSA-N-P44

>  <subsites>  (908) 


>  <placement_batch>  (908) 
CpKRS_FrAncestor_bulkdock_iter2

>  <name>  (908) 
NLCPODVILGBEDX-UHFFFAOYSA-N-P44

$$$$
LANLPHAACKMLMO-UHFFFAOYSA-N-P46
     RDKit          3D

 16 17  0  0  0  0  0  0  0  0999 V2000
    4.9936   -9.7211   24.8420 C   0  0  0  0  0  0  0  0  0  0  0  0
    4.2128   -9.4945   23.5771 C   0  0  0  0  0  0  0  0  0  0  0  0
    2.7587   -9.1616   23.9497 C   0  0  0  0  0  0  0  0  0  0  0  0
    4.8907   -8.3217   22.8707 C   0  0  0  0  0  0  0  0  0  0  0  0
    4.9453   -8.6931   21.4197 C   0  0  0  0  0  0  0  0  0  0  0  0
    5.1741  -10.1772   21.4689 C   0  0  0  0  0  0  0  0  0  0  0  0
    4.2617  -10.6838   22.5784 C   0  0  1  0  0  0  0  0  0  0  0  0
    4.7825  -12.0263   23.0848 C   0  0  0  0  0  0  0  0  0  0  0  0
    3.9440  -12.6661   24.0519 N   0  0  0  0  0  0  0  0  0  0  0  0
    4.3018  -13.5916   25.2298 C   0  0  0  0  0  0  0  0  0  0  0  0
    5.3263  -14.0404   25.5520 O   0  0  0  0  0  0  0  0  0  0  0  0
    3.1213  -13.8237   26.0404 C   0  0  0  0  0  0  0  0  0  0  0  0
    2.8116  -14.9265   26.8137 C   0  0  0  0  0  0  0  0  0  0  0  0
    1.6417  -14.7373   27.5113 N   0  0  0  0  0  0  0  0  0  0  0  0
    1.2459  -13.5333   27.1867 C   0  0  0  0  0  0  0  0  0  0  0  0
    2.0984  -12.9441   26.3025 N   0  0  0  0  0  0  0  0  0  0  0  0
  1  2  1  0
  2  3  1  0
  2  4  1  0
  4  5  1  0
  5  6  1  0
  6  7  1  0
  7  8  1  1
  8  9  1  0
  9 10  1  0
 10 11  2  0
 10 12  1  0
 12 13  2  0
 13 14  1  0
 14 15  2  0
 15 16  1  0
  7  2  1  0
 16 12  1  0
M  END
>  <inchikey>  (909) 
LANLPHAACKMLMO-UHFFFAOYSA-N

>  <tags>  (909) 
fragmenstein_placed,CpKRS_FrAncestor_bulkdock_iter2

>  <ref_pdb>  (909) 
x0485c

>  <energy_score>  (909) 
-9.022858

>  <distance_score>  (909) 
0.738337

>  <HIPPO Pose ID>  (909) 
57193

>  <ref_mols>  (909) 
x0502c

>  <smiles>  (909) 
CC1(C)CCCC1CNC(=O)c1cnc[nH]1

>  <HIPPO Compound ID>  (909) 
34706

>  <alias>  (909) 
LANLPHAACKMLMO-UHFFFAOYSA-N-P46

>  <subsites>  (909) 


>  <placement_batch>  (909) 
CpKRS_FrAncestor_bulkdock_iter2

>  <name>  (909) 
LANLPHAACKMLMO-UHFFFAOYSA-N-P46

$$$$
XEIDSRRGYMOKNN-UHFFFAOYSA-N-P46
     RDKit          3D

 16 17  0  0  0  0  0  0  0  0999 V2000
    5.7616  -10.0489   21.5676 C   0  0  0  0  0  0  0  0  0  0  0  0
    4.8651   -9.3669   22.5566 C   0  0  0  0  0  0  0  0  0  0  0  0
    4.1519   -8.2733   21.7823 C   0  0  0  0  0  0  0  0  0  0  0  0
    5.6445   -8.7466   23.7193 C   0  0  0  0  0  0  0  0  0  0  0  0
    4.6048   -8.5686   24.8167 C   0  0  0  0  0  0  0  0  0  0  0  0
    3.4448   -9.5044   24.4671 C   0  0  0  0  0  0  0  0  0  0  0  0
    3.8954  -10.3382   23.2622 C   0  0  2  0  0  0  0  0  0  0  0  0
    4.5659  -11.6670   23.6537 C   0  0  0  0  0  0  0  0  0  0  0  0
    3.8131  -12.4813   24.5479 N   0  0  0  0  0  0  0  0  0  0  0  0
    4.2508  -13.6577   25.4364 C   0  0  0  0  0  0  0  0  0  0  0  0
    5.2790  -14.1974   25.5214 O   0  0  0  0  0  0  0  0  0  0  0  0
    3.1372  -14.0110   26.2855 C   0  0  0  0  0  0  0  0  0  0  0  0
    2.9558  -15.0039   27.2191 C   0  0  0  0  0  0  0  0  0  0  0  0
    1.7612  -14.8202   27.8751 N   0  0  0  0  0  0  0  0  0  0  0  0
    1.2651  -13.7510   27.2996 C   0  0  0  0  0  0  0  0  0  0  0  0
    2.0093  -13.2218   26.2988 O   0  0  0  0  0  0  0  0  0  0  0  0
  1  2  1  0
  2  3  1  0
  2  4  1  0
  4  5  1  0
  5  6  1  0
  6  7  1  0
  7  8  1  1
  8  9  1  0
  9 10  1  0
 10 11  2  0
 10 12  1  0
 12 13  2  0
 13 14  1  0
 14 15  2  0
 15 16  1  0
  7  2  1  0
 16 12  1  0
M  END
>  <inchikey>  (910) 
XEIDSRRGYMOKNN-UHFFFAOYSA-N

>  <tags>  (910) 
fragmenstein_placed,CpKRS_FrAncestor_bulkdock_iter2

>  <ref_pdb>  (910) 
x0485c

>  <energy_score>  (910) 
-37.991444

>  <distance_score>  (910) 
0.907161

>  <HIPPO Pose ID>  (910) 
57196

>  <ref_mols>  (910) 
x0502c

>  <smiles>  (910) 
CC1(C)CCCC1CNC(=O)c1cnco1

>  <HIPPO Compound ID>  (910) 
34707

>  <alias>  (910) 
XEIDSRRGYMOKNN-UHFFFAOYSA-N-P46

>  <subsites>  (910) 


>  <placement_batch>  (910) 
CpKRS_FrAncestor_bulkdock_iter2

>  <name>  (910) 
XEIDSRRGYMOKNN-UHFFFAOYSA-N-P46

$$$$
CXDIFYJBNVZVRU-UHFFFAOYSA-N-P45
     RDKit          3D

 20 21  0  0  0  0  0  0  0  0999 V2000
    5.9145  -10.1250   22.1164 C   0  0  0  0  0  0  0  0  0  0  0  0
    4.7917   -9.2186   22.5469 C   0  0  0  0  0  0  0  0  0  0  0  0
    4.2551   -8.5530   21.3195 C   0  0  0  0  0  0  0  0  0  0  0  0
    5.3025   -8.1221   23.4882 C   0  0  0  0  0  0  0  0  0  0  0  0
    5.3685   -8.7944   24.8306 C   0  0  0  0  0  0  0  0  0  0  0  0
    4.2522   -9.8273   24.7980 C   0  0  0  0  0  0  0  0  0  0  0  0
    3.7328   -9.9725   23.3695 C   0  0  2  0  0  0  0  0  0  0  0  0
    3.4544  -11.4378   22.9711 C   0  0  0  0  0  0  0  0  0  0  0  0
    2.9380  -12.2448   24.0383 N   0  0  0  0  0  0  0  0  0  0  0  0
    3.6518  -13.2400   24.9783 C   0  0  0  0  0  0  0  0  0  0  0  0
    4.7541  -13.6163   24.9822 O   0  0  0  0  0  0  0  0  0  0  0  0
    2.7389  -13.7012   26.0335 C   0  0  0  0  0  0  0  0  0  0  0  0
    1.4432  -13.2502   26.3906 C   0  0  0  0  0  0  0  0  0  0  0  0
    0.9096  -13.9133   27.4182 N   0  0  0  0  0  0  0  0  0  0  0  0
    1.8865  -14.7760   27.7535 N   0  0  0  0  0  0  0  0  0  0  0  0
    2.9988  -14.6923   26.9718 C   0  0  0  0  0  0  0  0  0  0  0  0
    4.1291  -15.5917   27.2692 C   0  0  0  0  0  0  0  0  0  0  0  0
    4.0154  -16.7882   26.6538 F   0  0  0  0  0  0  0  0  0  0  0  0
    4.1231  -15.8921   28.6064 F   0  0  0  0  0  0  0  0  0  0  0  0
    5.3603  -15.1073   27.0038 F   0  0  0  0  0  0  0  0  0  0  0  0
  1  2  1  0
  2  3  1  0
  2  4  1  0
  4  5  1  0
  5  6  1  0
  6  7  1  0
  7  8  1  6
  8  9  1  0
  9 10  1  0
 10 11  2  0
 10 12  1  0
 12 13  1  0
 13 14  2  0
 14 15  1  0
 15 16  1  0
 16 17  1  0
 17 18  1  0
 17 19  1  0
 17 20  1  0
  7  2  1  0
 16 12  2  0
M  END
>  <inchikey>  (911) 
CXDIFYJBNVZVRU-UHFFFAOYSA-N

>  <tags>  (911) 
fragmenstein_placed,CpKRS_FrAncestor_bulkdock_iter2

>  <ref_pdb>  (911) 
x0485c

>  <energy_score>  (911) 
-12.156384

>  <distance_score>  (911) 
0.691597

>  <HIPPO Pose ID>  (911) 
57197

>  <ref_mols>  (911) 
x0502a

>  <smiles>  (911) 
CC1(C)CCCC1CNC(=O)c1cn[nH]c1C(F)(F)F

>  <HIPPO Compound ID>  (911) 
34708

>  <alias>  (911) 
CXDIFYJBNVZVRU-UHFFFAOYSA-N-P45

>  <subsites>  (911) 


>  <placement_batch>  (911) 
CpKRS_FrAncestor_bulkdock_iter2

>  <name>  (911) 
CXDIFYJBNVZVRU-UHFFFAOYSA-N-P45

$$$$
FJPAYEITROWUIB-UHFFFAOYSA-N-P44
     RDKit          3D

 17 18  0  0  0  0  0  0  0  0999 V2000
  -13.6001  -15.4665   41.9205 C   0  0  0  0  0  0  0  0  0  0  0  0
  -13.7529  -15.6694   43.4440 C   0  0  0  0  0  0  0  0  0  0  0  0
  -15.0524  -14.9864   43.8833 C   0  0  0  0  0  0  0  0  0  0  0  0
  -13.7777  -17.1665   43.7844 C   0  0  0  0  0  0  0  0  0  0  0  0
  -12.3199  -17.6043   43.7529 C   0  0  0  0  0  0  0  0  0  0  0  0
  -11.4863  -16.3466   43.9946 C   0  0  0  0  0  0  0  0  0  0  0  0
  -12.4749  -15.1789   44.1797 C   0  0  2  0  0  0  0  0  0  0  0  0
  -12.6612  -14.8585   45.6747 C   0  0  0  0  0  0  0  0  0  0  0  0
  -11.4971  -14.2229   46.2429 N   0  0  0  0  0  0  0  0  0  0  0  0
  -10.9380  -12.8042   46.0469 C   0  0  0  0  0  0  0  0  0  0  0  0
  -11.2838  -11.9480   45.3372 O   0  0  0  0  0  0  0  0  0  0  0  0
   -9.8037  -12.5470   46.9349 C   0  0  0  0  0  0  0  0  0  0  0  0
   -8.9298  -11.4263   46.8547 C   0  0  0  0  0  0  0  0  0  0  0  0
   -7.9825  -11.4142   47.8006 N   0  0  0  0  0  0  0  0  0  0  0  0
   -8.2193  -12.5529   48.4771 N   0  0  0  0  0  0  0  0  0  0  0  0
   -9.3126  -13.2221   48.0256 C   0  0  0  0  0  0  0  0  0  0  0  0
   -9.7656  -14.6205   48.8739 Cl  0  0  0  0  0  0  0  0  0  0  0  0
  1  2  1  0
  2  3  1  0
  2  4  1  0
  4  5  1  0
  5  6  1  0
  6  7  1  0
  7  8  1  1
  8  9  1  0
  9 10  1  0
 10 11  2  0
 10 12  1  0
 12 13  1  0
 13 14  2  0
 14 15  1  0
 15 16  1  0
 16 17  1  0
  7  2  1  0
 16 12  2  0
M  END
>  <inchikey>  (912) 
FJPAYEITROWUIB-UHFFFAOYSA-N

>  <tags>  (912) 
fragmenstein_placed,CpKRS_FrAncestor_bulkdock_iter2

>  <ref_pdb>  (912) 
x0485c

>  <energy_score>  (912) 
-23.880604

>  <distance_score>  (912) 
0.425146

>  <HIPPO Pose ID>  (912) 
57201

>  <ref_mols>  (912) 
x0502b

>  <smiles>  (912) 
CC1(C)CCCC1CNC(=O)c1cn[nH]c1Cl

>  <HIPPO Compound ID>  (912) 
34709

>  <alias>  (912) 
FJPAYEITROWUIB-UHFFFAOYSA-N-P44

>  <subsites>  (912) 


>  <placement_batch>  (912) 
CpKRS_FrAncestor_bulkdock_iter2

>  <name>  (912) 
FJPAYEITROWUIB-UHFFFAOYSA-N-P44

$$$$
LDITWUHMBNXYDH-UHFFFAOYSA-N-P44
     RDKit          3D

 17 18  0  0  0  0  0  0  0  0999 V2000
  -13.5595  -15.4116   41.9998 C   0  0  0  0  0  0  0  0  0  0  0  0
  -13.7507  -15.6615   43.5121 C   0  0  0  0  0  0  0  0  0  0  0  0
  -15.0762  -15.0174   43.9324 C   0  0  0  0  0  0  0  0  0  0  0  0
  -13.7545  -17.1682   43.8086 C   0  0  0  0  0  0  0  0  0  0  0  0
  -12.2873  -17.5761   43.8132 C   0  0  0  0  0  0  0  0  0  0  0  0
  -11.4866  -16.3061   44.0992 C   0  0  0  0  0  0  0  0  0  0  0  0
  -12.5041  -15.1674   44.2988 C   0  0  2  0  0  0  0  0  0  0  0  0
  -12.7374  -14.9034   45.7992 C   0  0  0  0  0  0  0  0  0  0  0  0
  -11.6185  -14.2398   46.4242 N   0  0  0  0  0  0  0  0  0  0  0  0
  -11.0675  -12.8158   46.2339 C   0  0  0  0  0  0  0  0  0  0  0  0
  -11.4746  -11.9273   45.6000 O   0  0  0  0  0  0  0  0  0  0  0  0
   -9.8798  -12.5911   47.0543 C   0  0  0  0  0  0  0  0  0  0  0  0
   -9.0223  -11.4597   46.9992 C   0  0  0  0  0  0  0  0  0  0  0  0
   -8.0226  -11.5034   47.8882 N   0  0  0  0  0  0  0  0  0  0  0  0
   -8.2124  -12.6893   48.4970 N   0  0  0  0  0  0  0  0  0  0  0  0
   -9.3232  -13.3439   48.0619 C   0  0  0  0  0  0  0  0  0  0  0  0
   -9.7697  -14.5125   48.5436 F   0  0  0  0  0  0  0  0  0  0  0  0
  1  2  1  0
  2  3  1  0
  2  4  1  0
  4  5  1  0
  5  6  1  0
  6  7  1  0
  7  8  1  1
  8  9  1  0
  9 10  1  0
 10 11  2  0
 10 12  1  0
 12 13  1  0
 13 14  2  0
 14 15  1  0
 15 16  1  0
 16 17  1  0
  7  2  1  0
 16 12  2  0
M  END
>  <inchikey>  (913) 
LDITWUHMBNXYDH-UHFFFAOYSA-N

>  <tags>  (913) 
fragmenstein_placed,CpKRS_FrAncestor_bulkdock_iter2

>  <ref_pdb>  (913) 
x0485c

>  <energy_score>  (913) 
-12.206928

>  <distance_score>  (913) 
0.399288

>  <HIPPO Pose ID>  (913) 
57204

>  <ref_mols>  (913) 
x0502b

>  <smiles>  (913) 
CC1(C)CCCC1CNC(=O)c1cn[nH]c1F

>  <HIPPO Compound ID>  (913) 
34710

>  <alias>  (913) 
LDITWUHMBNXYDH-UHFFFAOYSA-N-P44

>  <subsites>  (913) 


>  <placement_batch>  (913) 
CpKRS_FrAncestor_bulkdock_iter2

>  <name>  (913) 
LDITWUHMBNXYDH-UHFFFAOYSA-N-P44

$$$$
RNKADZRWOLOTCS-UHFFFAOYSA-N-P44
     RDKit          3D

 16 17  0  0  0  0  0  0  0  0999 V2000
  -10.8522  -16.0466   43.0584 C   0  0  0  0  0  0  0  0  0  0  0  0
  -12.3662  -16.0826   43.0600 C   0  0  0  0  0  0  0  0  0  0  0  0
  -12.8467  -15.4180   41.7490 C   0  0  0  0  0  0  0  0  0  0  0  0
  -12.8739  -17.5319   43.1369 C   0  0  0  0  0  0  0  0  0  0  0  0
  -14.2732  -17.4433   43.7394 C   0  0  0  0  0  0  0  0  0  0  0  0
  -14.4413  -16.0109   44.2444 C   0  0  0  0  0  0  0  0  0  0  0  0
  -13.0256  -15.4102   44.2942 C   0  0  1  0  0  0  0  0  0  0  0  0
  -12.3931  -15.7176   45.6690 C   0  0  0  0  0  0  0  0  0  0  0  0
  -11.3437  -14.8197   46.0897 N   0  0  0  0  0  0  0  0  0  0  0  0
  -11.2892  -13.2792   46.1023 C   0  0  0  0  0  0  0  0  0  0  0  0
  -12.0519  -12.4932   45.7037 O   0  0  0  0  0  0  0  0  0  0  0  0
  -10.1031  -12.8112   46.8273 C   0  0  0  0  0  0  0  0  0  0  0  0
   -9.4830  -11.5418   46.7168 C   0  0  0  0  0  0  0  0  0  0  0  0
   -8.4343  -11.3942   47.5328 N   0  0  0  0  0  0  0  0  0  0  0  0
   -8.3730  -12.5716   48.1746 N   0  0  0  0  0  0  0  0  0  0  0  0
   -9.3685  -13.4372   47.8179 C   0  0  0  0  0  0  0  0  0  0  0  0
  1  2  1  0
  2  3  1  0
  2  4  1  0
  4  5  1  0
  5  6  1  0
  6  7  1  0
  7  8  1  1
  8  9  1  0
  9 10  1  0
 10 11  2  0
 10 12  1  0
 12 13  1  0
 13 14  2  0
 14 15  1  0
 15 16  1  0
  7  2  1  0
 16 12  2  0
M  END
>  <inchikey>  (914) 
RNKADZRWOLOTCS-UHFFFAOYSA-N

>  <tags>  (914) 
fragmenstein_placed,CpKRS_FrAncestor_bulkdock_iter2

>  <ref_pdb>  (914) 
x0485c

>  <energy_score>  (914) 
-18.872365

>  <distance_score>  (914) 
0.743475

>  <HIPPO Pose ID>  (914) 
57207

>  <ref_mols>  (914) 
x0502b

>  <smiles>  (914) 
CC1(C)CCCC1CNC(=O)c1cn[nH]c1

>  <HIPPO Compound ID>  (914) 
34711

>  <alias>  (914) 
RNKADZRWOLOTCS-UHFFFAOYSA-N-P44

>  <subsites>  (914) 


>  <placement_batch>  (914) 
CpKRS_FrAncestor_bulkdock_iter2

>  <name>  (914) 
RNKADZRWOLOTCS-UHFFFAOYSA-N-P44

$$$$
JBEABLHHILVEND-UHFFFAOYSA-N-P45
     RDKit          3D

 16 17  0  0  0  0  0  0  0  0999 V2000
    4.4089   -8.7120   21.2603 C   0  0  0  0  0  0  0  0  0  0  0  0
    4.7777   -9.2533   22.6125 C   0  0  0  0  0  0  0  0  0  0  0  0
    5.6674  -10.4636   22.4198 C   0  0  0  0  0  0  0  0  0  0  0  0
    5.5171   -8.1364   23.3690 C   0  0  0  0  0  0  0  0  0  0  0  0
    5.3506   -8.4719   24.8310 C   0  0  0  0  0  0  0  0  0  0  0  0
    4.1614   -9.4174   24.8983 C   0  0  0  0  0  0  0  0  0  0  0  0
    3.5601   -9.5270   23.5064 C   0  0  2  0  0  0  0  0  0  0  0  0
    2.7412  -10.8005   23.2218 C   0  0  0  0  0  0  0  0  0  0  0  0
    2.6679  -11.7612   24.2897 N   0  0  0  0  0  0  0  0  0  0  0  0
    3.6790  -12.8392   24.7411 C   0  0  0  0  0  0  0  0  0  0  0  0
    4.7601  -13.0649   24.3668 O   0  0  0  0  0  0  0  0  0  0  0  0
    3.1395  -13.6345   25.8654 C   0  0  0  0  0  0  0  0  0  0  0  0
    3.8225  -14.7632   26.4455 C   0  0  0  0  0  0  0  0  0  0  0  0
    3.2699  -15.3611   27.4991 N   0  0  0  0  0  0  0  0  0  0  0  0
    1.8508  -14.5973   27.8308 S   0  0  0  0  0  0  0  0  0  0  0  0
    1.9696  -13.4339   26.5814 C   0  0  0  0  0  0  0  0  0  0  0  0
  1  2  1  0
  2  3  1  0
  2  4  1  0
  4  5  1  0
  5  6  1  0
  6  7  1  0
  7  8  1  6
  8  9  1  0
  9 10  1  0
 10 11  2  0
 10 12  1  0
 12 13  1  0
 13 14  2  0
 14 15  1  0
 15 16  1  0
  7  2  1  0
 16 12  2  0
M  END
>  <inchikey>  (915) 
JBEABLHHILVEND-UHFFFAOYSA-N

>  <tags>  (915) 
fragmenstein_placed,CpKRS_FrAncestor_bulkdock_iter2

>  <ref_pdb>  (915) 
x0485c

>  <energy_score>  (915) 
-6.003323

>  <distance_score>  (915) 
0.990242

>  <HIPPO Pose ID>  (915) 
57209

>  <ref_mols>  (915) 
x0502a

>  <smiles>  (915) 
CC1(C)CCCC1CNC(=O)c1cnsc1

>  <HIPPO Compound ID>  (915) 
34712

>  <alias>  (915) 
JBEABLHHILVEND-UHFFFAOYSA-N-P45

>  <subsites>  (915) 


>  <placement_batch>  (915) 
CpKRS_FrAncestor_bulkdock_iter2

>  <name>  (915) 
JBEABLHHILVEND-UHFFFAOYSA-N-P45

$$$$
HRAKOCVPOIBHJQ-UHFFFAOYSA-N-P44
     RDKit          3D

 16 17  0  0  0  0  0  0  0  0999 V2000
  -10.4729  -12.0445   49.7667 C   0  0  0  0  0  0  0  0  0  0  0  0
   -9.5198  -12.9355   48.9488 C   0  0  0  0  0  0  0  0  0  0  0  0
   -9.3195  -14.2676   49.6830 C   0  0  0  0  0  0  0  0  0  0  0  0
   -8.1788  -12.2175   48.7339 C   0  0  0  0  0  0  0  0  0  0  0  0
   -8.4018  -11.2998   47.5353 C   0  0  0  0  0  0  0  0  0  0  0  0
   -9.5874  -11.8767   46.7582 C   0  0  0  0  0  0  0  0  0  0  0  0
   -9.9884  -13.1631   47.4938 C   0  0  2  0  0  0  0  0  0  0  0  0
  -11.4652  -13.5199   47.3463 C   0  0  0  0  0  0  0  0  0  0  0  0
  -11.7450  -14.2979   46.1704 N   0  0  0  0  0  0  0  0  0  0  0  0
  -13.0792  -14.6459   45.5004 C   0  0  0  0  0  0  0  0  0  0  0  0
  -14.1614  -14.2961   45.7472 O   0  0  0  0  0  0  0  0  0  0  0  0
  -12.8237  -15.5883   44.4095 C   0  0  0  0  0  0  0  0  0  0  0  0
  -13.7832  -16.1825   43.6219 C   0  0  0  0  0  0  0  0  0  0  0  0
  -13.1611  -17.0119   42.7432 O   0  0  0  0  0  0  0  0  0  0  0  0
  -11.8393  -16.8604   43.0292 C   0  0  0  0  0  0  0  0  0  0  0  0
  -11.5660  -16.0421   44.0230 N   0  0  0  0  0  0  0  0  0  0  0  0
  1  2  1  0
  2  3  1  0
  2  4  1  0
  4  5  1  0
  5  6  1  0
  6  7  1  0
  7  8  1  1
  8  9  1  0
  9 10  1  0
 10 11  2  0
 10 12  1  0
 12 13  2  0
 13 14  1  0
 14 15  1  0
 15 16  2  0
  7  2  1  0
 16 12  1  0
M  END
>  <inchikey>  (916) 
HRAKOCVPOIBHJQ-UHFFFAOYSA-N

>  <tags>  (916) 
fragmenstein_placed,CpKRS_FrAncestor_bulkdock_iter2

>  <ref_pdb>  (916) 
x0485c

>  <energy_score>  (916) 
-23.120287

>  <distance_score>  (916) 
0.782092

>  <HIPPO Pose ID>  (916) 
57213

>  <ref_mols>  (916) 
x0502b

>  <smiles>  (916) 
CC1(C)CCCC1CNC(=O)c1cocn1

>  <HIPPO Compound ID>  (916) 
34713

>  <alias>  (916) 
HRAKOCVPOIBHJQ-UHFFFAOYSA-N-P44

>  <subsites>  (916) 


>  <placement_batch>  (916) 
CpKRS_FrAncestor_bulkdock_iter2

>  <name>  (916) 
HRAKOCVPOIBHJQ-UHFFFAOYSA-N-P44

$$$$
XQNTVJVGXGZSCF-UHFFFAOYSA-N-P46
     RDKit          3D

 17 18  0  0  0  0  0  0  0  0999 V2000
    4.6230  -15.6349   27.7809 C   0  0  0  0  0  0  0  0  0  0  0  0
    3.2481  -15.2857   27.2386 C   0  0  0  0  0  0  0  0  0  0  0  0
    2.7729  -16.5837   26.6157 C   0  0  0  0  0  0  0  0  0  0  0  0
    2.1649  -14.8854   28.2671 C   0  0  0  0  0  0  0  0  0  0  0  0
    1.2632  -13.8562   27.5457 C   0  0  0  0  0  0  0  0  0  0  0  0
    1.8427  -13.6522   26.1492 C   0  0  0  0  0  0  0  0  0  0  0  0
    3.3007  -14.0011   26.3856 C   0  0  2  0  0  0  0  0  0  0  0  0
    4.2762  -13.8364   25.2420 C   0  0  0  0  0  0  0  0  0  0  0  0
    4.2709  -12.4827   24.7249 N   0  0  0  0  0  0  0  0  0  0  0  0
    4.8448  -11.9107   23.4202 C   0  0  0  0  0  0  0  0  0  0  0  0
    5.3449  -12.4471   22.5184 O   0  0  0  0  0  0  0  0  0  0  0  0
    4.7962  -10.4563   23.4304 C   0  0  0  0  0  0  0  0  0  0  0  0
    4.7907   -9.6395   24.5227 N   0  0  0  0  0  0  0  0  0  0  0  0
    4.8879   -8.3279   24.2668 N   0  0  0  0  0  0  0  0  0  0  0  0
    4.9658   -8.2963   22.9383 C   0  0  0  0  0  0  0  0  0  0  0  0
    4.8707   -9.5711   22.3796 C   0  0  0  0  0  0  0  0  0  0  0  0
    4.8702   -9.8508   20.7392 Cl  0  0  0  0  0  0  0  0  0  0  0  0
  1  2  1  0
  2  3  1  0
  2  4  1  0
  4  5  1  0
  5  6  1  0
  6  7  1  0
  7  8  1  6
  8  9  1  0
  9 10  1  0
 10 11  2  0
 10 12  1  0
 12 13  1  0
 13 14  1  0
 14 15  2  0
 15 16  1  0
 16 17  1  0
  7  2  1  0
 16 12  2  0
M  END
>  <inchikey>  (917) 
XQNTVJVGXGZSCF-UHFFFAOYSA-N

>  <tags>  (917) 
fragmenstein_placed,CpKRS_FrAncestor_bulkdock_iter2

>  <ref_pdb>  (917) 
x0485c

>  <energy_score>  (917) 
-1.898293

>  <distance_score>  (917) 
0.699972

>  <HIPPO Pose ID>  (917) 
57223

>  <ref_mols>  (917) 
x0502c

>  <smiles>  (917) 
CC1(C)CCCC1CNC(=O)c1[nH]ncc1Cl

>  <HIPPO Compound ID>  (917) 
34716

>  <alias>  (917) 
XQNTVJVGXGZSCF-UHFFFAOYSA-N-P46

>  <subsites>  (917) 


>  <placement_batch>  (917) 
CpKRS_FrAncestor_bulkdock_iter2

>  <name>  (917) 
XQNTVJVGXGZSCF-UHFFFAOYSA-N-P46

$$$$
MNLCVZMNFJXNOC-UHFFFAOYSA-N-P46
     RDKit          3D

 17 18  0  0  0  0  0  0  0  0999 V2000
    4.4991  -15.4112   27.5375 C   0  0  0  0  0  0  0  0  0  0  0  0
    3.0881  -15.1929   27.0034 C   0  0  0  0  0  0  0  0  0  0  0  0
    2.6649  -16.6184   26.6525 C   0  0  0  0  0  0  0  0  0  0  0  0
    2.0828  -14.6796   28.0544 C   0  0  0  0  0  0  0  0  0  0  0  0
    1.1186  -13.7822   27.2883 C   0  0  0  0  0  0  0  0  0  0  0  0
    1.9919  -13.0647   26.2900 C   0  0  0  0  0  0  0  0  0  0  0  0
    2.9654  -14.1483   25.8321 C   0  0  1  0  0  0  0  0  0  0  0  0
    4.2517  -13.6621   25.1548 C   0  0  0  0  0  0  0  0  0  0  0  0
    4.2761  -12.2849   24.7495 N   0  0  0  0  0  0  0  0  0  0  0  0
    4.0005  -11.6427   23.3850 C   0  0  0  0  0  0  0  0  0  0  0  0
    3.6343  -12.1175   22.3875 O   0  0  0  0  0  0  0  0  0  0  0  0
    4.3882  -10.2255   23.4746 C   0  0  0  0  0  0  0  0  0  0  0  0
    4.5000   -9.5949   24.6619 N   0  0  0  0  0  0  0  0  0  0  0  0
    5.0446   -8.3546   24.3883 O   0  0  0  0  0  0  0  0  0  0  0  0
    5.2455   -8.2428   23.0584 C   0  0  0  0  0  0  0  0  0  0  0  0
    4.8079   -9.3731   22.4363 C   0  0  0  0  0  0  0  0  0  0  0  0
    4.8683   -9.6850   20.7995 Cl  0  0  0  0  0  0  0  0  0  0  0  0
  1  2  1  0
  2  3  1  0
  2  4  1  0
  4  5  1  0
  5  6  1  0
  6  7  1  0
  7  8  1  1
  8  9  1  0
  9 10  1  0
 10 11  2  0
 10 12  1  0
 12 13  2  0
 13 14  1  0
 14 15  1  0
 15 16  2  0
 16 17  1  0
  7  2  1  0
 16 12  1  0
M  END
>  <inchikey>  (918) 
MNLCVZMNFJXNOC-UHFFFAOYSA-N

>  <tags>  (918) 
fragmenstein_placed,CpKRS_FrAncestor_bulkdock_iter2

>  <ref_pdb>  (918) 
x0485c

>  <energy_score>  (918) 
-6.598109

>  <distance_score>  (918) 
0.690978

>  <HIPPO Pose ID>  (918) 
57226

>  <ref_mols>  (918) 
x0502c

>  <smiles>  (918) 
CC1(C)CCCC1CNC(=O)c1nocc1Cl

>  <HIPPO Compound ID>  (918) 
34717

>  <alias>  (918) 
MNLCVZMNFJXNOC-UHFFFAOYSA-N-P46

>  <subsites>  (918) 


>  <placement_batch>  (918) 
CpKRS_FrAncestor_bulkdock_iter2

>  <name>  (918) 
MNLCVZMNFJXNOC-UHFFFAOYSA-N-P46

$$$$
UHUMPQDQXKZJCK-UHFFFAOYSA-N-P44
     RDKit          3D

 17 18  0  0  0  0  0  0  0  0999 V2000
  -10.4403  -12.0090   49.7880 C   0  0  0  0  0  0  0  0  0  0  0  0
   -9.5041  -12.9112   48.9627 C   0  0  0  0  0  0  0  0  0  0  0  0
   -9.3316  -14.2551   49.6826 C   0  0  0  0  0  0  0  0  0  0  0  0
   -8.1489  -12.2177   48.7571 C   0  0  0  0  0  0  0  0  0  0  0  0
   -8.3531  -11.2818   47.5694 C   0  0  0  0  0  0  0  0  0  0  0  0
   -9.5451  -11.8301   46.7817 C   0  0  0  0  0  0  0  0  0  0  0  0
   -9.9739  -13.1150   47.5049 C   0  0  2  0  0  0  0  0  0  0  0  0
  -11.4579  -13.4398   47.3479 C   0  0  0  0  0  0  0  0  0  0  0  0
  -11.7124  -14.2831   46.2113 N   0  0  0  0  0  0  0  0  0  0  0  0
  -12.8495  -14.2460   45.1717 C   0  0  0  0  0  0  0  0  0  0  0  0
  -13.7160  -13.4798   45.0274 O   0  0  0  0  0  0  0  0  0  0  0  0
  -12.7773  -15.4274   44.3134 C   0  0  0  0  0  0  0  0  0  0  0  0
  -13.7772  -15.6166   43.3838 O   0  0  0  0  0  0  0  0  0  0  0  0
  -13.5314  -16.7901   42.7466 C   0  0  0  0  0  0  0  0  0  0  0  0
  -12.3792  -17.3669   43.2202 C   0  0  0  0  0  0  0  0  0  0  0  0
  -11.9131  -16.4951   44.2158 C   0  0  0  0  0  0  0  0  0  0  0  0
  -10.8255  -16.7001   44.9660 F   0  0  0  0  0  0  0  0  0  0  0  0
  1  2  1  0
  2  3  1  0
  2  4  1  0
  4  5  1  0
  5  6  1  0
  6  7  1  0
  7  8  1  1
  8  9  1  0
  9 10  1  0
 10 11  2  0
 10 12  1  0
 12 13  1  0
 13 14  1  0
 14 15  2  0
 15 16  1  0
 16 17  1  0
  7  2  1  0
 16 12  2  0
M  END
>  <inchikey>  (919) 
UHUMPQDQXKZJCK-UHFFFAOYSA-N

>  <tags>  (919) 
fragmenstein_placed,CpKRS_FrAncestor_bulkdock_iter2

>  <ref_pdb>  (919) 
x0485c

>  <energy_score>  (919) 
-12.542016

>  <distance_score>  (919) 
0.987311

>  <HIPPO Pose ID>  (919) 
57228

>  <ref_mols>  (919) 
x0502b

>  <smiles>  (919) 
CC1(C)CCCC1CNC(=O)c1occc1F

>  <HIPPO Compound ID>  (919) 
34718

>  <alias>  (919) 
UHUMPQDQXKZJCK-UHFFFAOYSA-N-P44

>  <subsites>  (919) 


>  <placement_batch>  (919) 
CpKRS_FrAncestor_bulkdock_iter2

>  <name>  (919) 
UHUMPQDQXKZJCK-UHFFFAOYSA-N-P44

$$$$
VFSLCEFQKYYUPJ-UHFFFAOYSA-N-P44
     RDKit          3D

 17 18  0  0  0  0  0  0  0  0999 V2000
  -15.1203  -15.1091   44.0617 C   0  0  0  0  0  0  0  0  0  0  0  0
  -13.7892  -15.6799   43.5606 C   0  0  0  0  0  0  0  0  0  0  0  0
  -13.6555  -15.3249   42.0631 C   0  0  0  0  0  0  0  0  0  0  0  0
  -13.7358  -17.2019   43.7550 C   0  0  0  0  0  0  0  0  0  0  0  0
  -12.2558  -17.5601   43.7046 C   0  0  0  0  0  0  0  0  0  0  0  0
  -11.4864  -16.2770   44.0177 C   0  0  0  0  0  0  0  0  0  0  0  0
  -12.5346  -15.1969   44.3412 C   0  0  2  0  0  0  0  0  0  0  0  0
  -12.7141  -15.0695   45.8658 C   0  0  0  0  0  0  0  0  0  0  0  0
  -11.6301  -14.3414   46.4781 N   0  0  0  0  0  0  0  0  0  0  0  0
  -11.3925  -12.8234   46.6119 C   0  0  0  0  0  0  0  0  0  0  0  0
  -12.0727  -11.9231   46.3164 O   0  0  0  0  0  0  0  0  0  0  0  0
  -10.1053  -12.5905   47.2822 C   0  0  0  0  0  0  0  0  0  0  0  0
   -9.1957  -11.1981   46.8284 S   0  0  0  0  0  0  0  0  0  0  0  0
   -7.9382  -11.5750   47.9184 C   0  0  0  0  0  0  0  0  0  0  0  0
   -8.1928  -12.7326   48.6172 C   0  0  0  0  0  0  0  0  0  0  0  0
   -9.4436  -13.3082   48.2632 C   0  0  0  0  0  0  0  0  0  0  0  0
   -9.9041  -14.4354   48.8592 N   0  0  0  0  0  0  0  0  0  0  0  0
  1  2  1  0
  2  3  1  0
  2  4  1  0
  4  5  1  0
  5  6  1  0
  6  7  1  0
  7  8  1  1
  8  9  1  0
  9 10  1  0
 10 11  2  0
 10 12  1  0
 12 13  1  0
 13 14  1  0
 14 15  2  0
 15 16  1  0
 16 17  1  0
  7  2  1  0
 16 12  2  0
M  END
>  <inchikey>  (920) 
VFSLCEFQKYYUPJ-UHFFFAOYSA-N

>  <tags>  (920) 
fragmenstein_placed,CpKRS_FrAncestor_bulkdock_iter2

>  <ref_pdb>  (920) 
x0485c

>  <energy_score>  (920) 
-31.578187

>  <distance_score>  (920) 
0.377649

>  <HIPPO Pose ID>  (920) 
57231

>  <ref_mols>  (920) 
x0502b

>  <smiles>  (920) 
CC1(C)CCCC1CNC(=O)c1sccc1N

>  <HIPPO Compound ID>  (920) 
34719

>  <alias>  (920) 
VFSLCEFQKYYUPJ-UHFFFAOYSA-N-P44

>  <subsites>  (920) 


>  <placement_batch>  (920) 
CpKRS_FrAncestor_bulkdock_iter2

>  <name>  (920) 
VFSLCEFQKYYUPJ-UHFFFAOYSA-N-P44

$$$$
TYSQHLKZBGBTKW-UHFFFAOYSA-N-P12
     RDKit          3D

 17 18  0  0  0  0  0  0  0  0999 V2000
    4.9575  -11.7617   21.6626 C   0  0  0  0  0  0  0  0  0  0  0  0
    4.5301  -10.4724   22.3164 C   0  0  2  0  0  0  0  0  0  0  0  0
    5.2238   -9.2506   21.7170 C   0  0  0  0  0  0  0  0  0  0  0  0
    5.4200   -8.2858   22.8775 C   0  0  0  0  0  0  0  0  0  0  0  0
    4.6854   -8.9088   24.0758 C   0  0  2  0  0  0  0  0  0  0  0  0
    5.2745   -8.3726   25.3648 C   0  0  0  0  0  0  0  0  0  0  0  0
    4.8793  -10.4044   23.8034 C   0  0  1  0  0  0  0  0  0  0  0  0
    4.1338  -11.3684   24.5680 N   0  0  0  0  0  0  0  0  0  0  0  0
    4.2799  -12.9018   24.6621 C   0  0  0  0  0  0  0  0  0  0  0  0
    5.0743  -13.6139   24.1955 O   0  0  0  0  0  0  0  0  0  0  0  0
    3.2991  -13.4718   25.5610 C   0  0  0  0  0  0  0  0  0  0  0  0
    3.5755  -14.3472   26.5980 C   0  0  0  0  0  0  0  0  0  0  0  0
    2.3499  -14.5897   27.2180 C   0  0  0  0  0  0  0  0  0  0  0  0
    2.1440  -15.4549   28.6585 Cl  0  0  0  0  0  0  0  0  0  0  0  0
    1.3296  -14.0426   26.5573 N   0  0  0  0  0  0  0  0  0  0  0  0
    1.9311  -13.3752   25.5443 N   0  0  0  0  0  0  0  0  0  0  0  0
    1.0959  -12.7982   24.5182 C   0  0  0  0  0  0  0  0  0  0  0  0
  2  1  1  6
  2  3  1  0
  3  4  1  0
  4  5  1  0
  5  6  1  1
  5  7  1  0
  7  8  1  1
  8  9  1  0
  9 10  2  0
  9 11  1  0
 11 12  2  0
 12 13  1  0
 13 14  1  0
 13 15  2  0
 15 16  1  0
 16 17  1  0
  7  2  1  0
 16 11  1  0
M  END
>  <inchikey>  (921) 
TYSQHLKZBGBTKW-UHFFFAOYSA-N

>  <tags>  (921) 
fragmenstein_placed,CpKRS_FrAncestor_bulkdock_iter2

>  <ref_pdb>  (921) 
x0485c

>  <energy_score>  (921) 
-4.809161

>  <distance_score>  (921) 
0.428026

>  <HIPPO Pose ID>  (921) 
57250

>  <ref_mols>  (921) 
x0421b

>  <smiles>  (921) 
CC1CCC(C)C1NC(=O)c1cc(Cl)nn1C

>  <HIPPO Compound ID>  (921) 
34724

>  <alias>  (921) 
TYSQHLKZBGBTKW-UHFFFAOYSA-N-P12

>  <subsites>  (921) 


>  <placement_batch>  (921) 
CpKRS_FrAncestor_bulkdock_iter2

>  <name>  (921) 
TYSQHLKZBGBTKW-UHFFFAOYSA-N-P12

$$$$
FARGCTYESMQDJX-UHFFFAOYSA-N-P13
     RDKit          3D

 15 16  0  0  0  0  0  0  0  0999 V2000
    4.6263  -11.6899   21.7730 C   0  0  0  0  0  0  0  0  0  0  0  0
    5.4041  -10.6513   22.5356 C   0  0  1  0  0  0  0  0  0  0  0  0
    5.1550   -9.2157   22.0716 C   0  0  0  0  0  0  0  0  0  0  0  0
    5.3934   -8.3921   23.3283 C   0  0  0  0  0  0  0  0  0  0  0  0
    4.7515   -9.2343   24.4346 C   0  0  1  0  0  0  0  0  0  0  0  0
    3.2382   -9.0352   24.5012 C   0  0  0  0  0  0  0  0  0  0  0  0
    5.1883  -10.6583   24.0552 C   0  0  1  0  0  0  0  0  0  0  0  0
    4.3681  -11.7255   24.5580 N   0  0  0  0  0  0  0  0  0  0  0  0
    4.7353  -13.1656   24.9563 C   0  0  0  0  0  0  0  0  0  0  0  0
    5.7453  -13.7393   24.8680 O   0  0  0  0  0  0  0  0  0  0  0  0
    3.5687  -13.8116   25.5824 C   0  0  0  0  0  0  0  0  0  0  0  0
    3.5706  -15.0137   26.3326 C   0  0  0  0  0  0  0  0  0  0  0  0
    2.2857  -15.1366   26.7814 C   0  0  0  0  0  0  0  0  0  0  0  0
    1.5367  -14.1131   26.3069 O   0  0  0  0  0  0  0  0  0  0  0  0
    2.3332  -13.2734   25.5452 N   0  0  0  0  0  0  0  0  0  0  0  0
  2  1  1  6
  2  3  1  0
  3  4  1  0
  4  5  1  0
  5  6  1  6
  5  7  1  0
  7  8  1  6
  8  9  1  0
  9 10  2  0
  9 11  1  0
 11 12  1  0
 12 13  2  0
 13 14  1  0
 14 15  1  0
  7  2  1  0
 15 11  2  0
M  END
>  <inchikey>  (922) 
FARGCTYESMQDJX-UHFFFAOYSA-N

>  <tags>  (922) 
fragmenstein_placed,CpKRS_FrAncestor_bulkdock_iter2

>  <ref_pdb>  (922) 
x0485c

>  <energy_score>  (922) 
-4.904835

>  <distance_score>  (922) 
0.378059

>  <HIPPO Pose ID>  (922) 
57259

>  <ref_mols>  (922) 
x0421c

>  <smiles>  (922) 
CC1CCC(C)C1NC(=O)c1ccon1

>  <HIPPO Compound ID>  (922) 
34726

>  <alias>  (922) 
FARGCTYESMQDJX-UHFFFAOYSA-N-P13

>  <subsites>  (922) 


>  <placement_batch>  (922) 
CpKRS_FrAncestor_bulkdock_iter2

>  <name>  (922) 
FARGCTYESMQDJX-UHFFFAOYSA-N-P13

$$$$
UYFXOKHBSJJKMO-UHFFFAOYSA-N-P13
     RDKit          3D

 15 16  0  0  0  0  0  0  0  0999 V2000
    4.5241  -11.7357   21.8353 C   0  0  0  0  0  0  0  0  0  0  0  0
    5.3789  -10.7188   22.5438 C   0  0  1  0  0  0  0  0  0  0  0  0
    5.1795   -9.2846   22.0463 C   0  0  0  0  0  0  0  0  0  0  0  0
    5.4161   -8.4302   23.2835 C   0  0  0  0  0  0  0  0  0  0  0  0
    4.7691   -9.2405   24.4100 C   0  0  1  0  0  0  0  0  0  0  0  0
    3.2562   -9.0375   24.4684 C   0  0  0  0  0  0  0  0  0  0  0  0
    5.2069  -10.6720   24.0659 C   0  0  1  0  0  0  0  0  0  0  0  0
    4.4179  -11.7245   24.6398 N   0  0  0  0  0  0  0  0  0  0  0  0
    4.7877  -13.1774   24.9818 C   0  0  0  0  0  0  0  0  0  0  0  0
    5.8118  -13.7296   24.9237 O   0  0  0  0  0  0  0  0  0  0  0  0
    3.5992  -13.8587   25.5509 C   0  0  0  0  0  0  0  0  0  0  0  0
    3.6518  -15.1214   26.2341 C   0  0  0  0  0  0  0  0  0  0  0  0
    2.4234  -15.4539   26.7559 C   0  0  0  0  0  0  0  0  0  0  0  0
    1.3115  -14.2273   26.3465 S   0  0  0  0  0  0  0  0  0  0  0  0
    2.3858  -13.2821   25.5121 N   0  0  0  0  0  0  0  0  0  0  0  0
  2  1  1  6
  2  3  1  0
  3  4  1  0
  4  5  1  0
  5  6  1  6
  5  7  1  0
  7  8  1  6
  8  9  1  0
  9 10  2  0
  9 11  1  0
 11 12  1  0
 12 13  2  0
 13 14  1  0
 14 15  1  0
  7  2  1  0
 15 11  2  0
M  END
>  <inchikey>  (923) 
UYFXOKHBSJJKMO-UHFFFAOYSA-N

>  <tags>  (923) 
fragmenstein_placed,CpKRS_FrAncestor_bulkdock_iter2

>  <ref_pdb>  (923) 
x0485c

>  <energy_score>  (923) 
-31.307424

>  <distance_score>  (923) 
0.420511

>  <HIPPO Pose ID>  (923) 
57267

>  <ref_mols>  (923) 
x0421c

>  <smiles>  (923) 
CC1CCC(C)C1NC(=O)c1ccsn1

>  <HIPPO Compound ID>  (923) 
34728

>  <alias>  (923) 
UYFXOKHBSJJKMO-UHFFFAOYSA-N-P13

>  <subsites>  (923) 


>  <placement_batch>  (923) 
CpKRS_FrAncestor_bulkdock_iter2

>  <name>  (923) 
UYFXOKHBSJJKMO-UHFFFAOYSA-N-P13

$$$$
CXGOJGDMQDRGGR-UHFFFAOYSA-N-P12
     RDKit          3D

 16 17  0  0  0  0  0  0  0  0999 V2000
    5.0262  -11.7565   21.6353 C   0  0  0  0  0  0  0  0  0  0  0  0
    4.6096  -10.4497   22.2588 C   0  0  2  0  0  0  0  0  0  0  0  0
    5.3358   -9.2380   21.6888 C   0  0  0  0  0  0  0  0  0  0  0  0
    5.4468   -8.2570   22.8495 C   0  0  0  0  0  0  0  0  0  0  0  0
    4.6842   -8.8956   24.0237 C   0  0  2  0  0  0  0  0  0  0  0  0
    5.2203   -8.3588   25.3355 C   0  0  0  0  0  0  0  0  0  0  0  0
    4.9091  -10.3852   23.7544 C   0  0  1  0  0  0  0  0  0  0  0  0
    4.1301  -11.3672   24.4459 N   0  0  0  0  0  0  0  0  0  0  0  0
    4.4369  -12.8434   24.7676 C   0  0  0  0  0  0  0  0  0  0  0  0
    5.3377  -13.5132   24.4542 O   0  0  0  0  0  0  0  0  0  0  0  0
    3.3464  -13.3907   25.5755 C   0  0  0  0  0  0  0  0  0  0  0  0
    3.4431  -14.4579   26.4462 C   0  0  0  0  0  0  0  0  0  0  0  0
    2.2673  -14.4548   27.1329 N   0  0  0  0  0  0  0  0  0  0  0  0
    2.0055  -15.2259   28.3176 C   0  0  0  0  0  0  0  0  0  0  0  0
    1.4567  -13.5087   26.5776 C   0  0  0  0  0  0  0  0  0  0  0  0
    2.0760  -12.8446   25.6249 N   0  0  0  0  0  0  0  0  0  0  0  0
  2  1  1  6
  2  3  1  0
  3  4  1  0
  4  5  1  0
  5  6  1  1
  5  7  1  0
  7  8  1  1
  8  9  1  0
  9 10  2  0
  9 11  1  0
 11 12  2  0
 12 13  1  0
 13 14  1  0
 13 15  1  0
 15 16  2  0
  7  2  1  0
 16 11  1  0
M  END
>  <inchikey>  (924) 
CXGOJGDMQDRGGR-UHFFFAOYSA-N

>  <tags>  (924) 
fragmenstein_placed,CpKRS_FrAncestor_bulkdock_iter2

>  <ref_pdb>  (924) 
x0485c

>  <energy_score>  (924) 
-6.179506

>  <distance_score>  (924) 
0.437932

>  <HIPPO Pose ID>  (924) 
57286

>  <ref_mols>  (924) 
x0421b

>  <smiles>  (924) 
CC1CCC(C)C1NC(=O)c1cn(C)cn1

>  <HIPPO Compound ID>  (924) 
34733

>  <alias>  (924) 
CXGOJGDMQDRGGR-UHFFFAOYSA-N-P12

>  <subsites>  (924) 


>  <placement_batch>  (924) 
CpKRS_FrAncestor_bulkdock_iter2

>  <name>  (924) 
CXGOJGDMQDRGGR-UHFFFAOYSA-N-P12

$$$$
XSQFPXZWFDXGEW-UHFFFAOYSA-N-P12
     RDKit          3D

 16 17  0  0  0  0  0  0  0  0999 V2000
    5.2287   -8.3418   25.3190 C   0  0  0  0  0  0  0  0  0  0  0  0
    4.6785   -8.8966   24.0201 C   0  0  1  0  0  0  0  0  0  0  0  0
    5.4310   -8.2870   22.8255 C   0  0  0  0  0  0  0  0  0  0  0  0
    5.3018   -9.2924   21.6870 C   0  0  0  0  0  0  0  0  0  0  0  0
    4.5855  -10.4955   22.2911 C   0  0  1  0  0  0  0  0  0  0  0  0
    5.0115  -11.8140   21.6979 C   0  0  0  0  0  0  0  0  0  0  0  0
    4.8930  -10.3925   23.7824 C   0  0  2  0  0  0  0  0  0  0  0  0
    4.1087  -11.3398   24.5179 N   0  0  0  0  0  0  0  0  0  0  0  0
    4.4117  -12.7995   24.9116 C   0  0  0  0  0  0  0  0  0  0  0  0
    5.3770  -13.4358   24.7666 O   0  0  0  0  0  0  0  0  0  0  0  0
    3.2295  -13.3842   25.5368 C   0  0  0  0  0  0  0  0  0  0  0  0
    3.1935  -14.5441   26.2753 C   0  0  0  0  0  0  0  0  0  0  0  0
    1.9171  -14.7361   26.7008 O   0  0  0  0  0  0  0  0  0  0  0  0
    1.2289  -13.6724   26.1833 C   0  0  0  0  0  0  0  0  0  0  0  0
   -0.4636  -13.4723   26.3874 Cl  0  0  0  0  0  0  0  0  0  0  0  0
    1.9600  -12.8401   25.4663 N   0  0  0  0  0  0  0  0  0  0  0  0
  2  1  1  1
  2  3  1  0
  3  4  1  0
  4  5  1  0
  5  6  1  6
  5  7  1  0
  7  8  1  1
  8  9  1  0
  9 10  2  0
  9 11  1  0
 11 12  2  0
 12 13  1  0
 13 14  1  0
 14 15  1  0
 14 16  2  0
  7  2  1  0
 16 11  1  0
M  END
>  <inchikey>  (925) 
XSQFPXZWFDXGEW-UHFFFAOYSA-N

>  <tags>  (925) 
fragmenstein_placed,CpKRS_FrAncestor_bulkdock_iter2

>  <ref_pdb>  (925) 
x0485c

>  <energy_score>  (925) 
-20.767489

>  <distance_score>  (925) 
0.40286

>  <HIPPO Pose ID>  (925) 
57294

>  <ref_mols>  (925) 
x0421b

>  <smiles>  (925) 
CC1CCC(C)C1NC(=O)c1coc(Cl)n1

>  <HIPPO Compound ID>  (925) 
34735

>  <alias>  (925) 
XSQFPXZWFDXGEW-UHFFFAOYSA-N-P12

>  <subsites>  (925) 


>  <placement_batch>  (925) 
CpKRS_FrAncestor_bulkdock_iter2

>  <name>  (925) 
XSQFPXZWFDXGEW-UHFFFAOYSA-N-P12

$$$$
GEWOEHKMMCOADI-UHFFFAOYSA-N-P12
     RDKit          3D

 16 17  0  0  0  0  0  0  0  0999 V2000
    5.9107   -8.8176   24.9636 C   0  0  0  0  0  0  0  0  0  0  0  0
    4.9625   -9.3340   23.8799 C   0  0  0  0  0  0  0  0  0  0  0  0
    3.5335   -8.9477   24.2646 C   0  0  0  0  0  0  0  0  0  0  0  0
    5.3988   -8.7123   22.5445 C   0  0  0  0  0  0  0  0  0  0  0  0
    4.7437   -9.5877   21.5017 C   0  0  0  0  0  0  0  0  0  0  0  0
    4.7452  -10.9949   22.0802 C   0  0  0  0  0  0  0  0  0  0  0  0
    5.0856  -10.8442   23.5672 C   0  0  2  0  0  0  0  0  0  0  0  0
    4.2947  -11.7483   24.3564 N   0  0  0  0  0  0  0  0  0  0  0  0
    4.6332  -13.1349   24.9248 C   0  0  0  0  0  0  0  0  0  0  0  0
    5.6316  -13.7332   24.9103 O   0  0  0  0  0  0  0  0  0  0  0  0
    3.4290  -13.6679   25.5595 C   0  0  0  0  0  0  0  0  0  0  0  0
    3.3440  -14.7828   26.3584 C   0  0  0  0  0  0  0  0  0  0  0  0
    2.0556  -14.9071   26.7776 O   0  0  0  0  0  0  0  0  0  0  0  0
    1.4079  -13.8499   26.1970 C   0  0  0  0  0  0  0  0  0  0  0  0
   -0.2776  -13.5724   26.3750 Cl  0  0  0  0  0  0  0  0  0  0  0  0
    2.1753  -13.0844   25.4457 N   0  0  0  0  0  0  0  0  0  0  0  0
  1  2  1  0
  2  3  1  0
  2  4  1  0
  4  5  1  0
  5  6  1  0
  6  7  1  0
  7  8  1  1
  8  9  1  0
  9 10  2  0
  9 11  1  0
 11 12  2  0
 12 13  1  0
 13 14  1  0
 14 15  1  0
 14 16  2  0
  7  2  1  0
 16 11  1  0
M  END
>  <inchikey>  (926) 
GEWOEHKMMCOADI-UHFFFAOYSA-N

>  <tags>  (926) 
fragmenstein_placed,CpKRS_FrAncestor_bulkdock_iter2

>  <ref_pdb>  (926) 
x0485c

>  <energy_score>  (926) 
-21.277345

>  <distance_score>  (926) 
0.376042

>  <HIPPO Pose ID>  (926) 
57298

>  <ref_mols>  (926) 
x0421b

>  <smiles>  (926) 
CC1(C)CCCC1NC(=O)c1coc(Cl)n1

>  <HIPPO Compound ID>  (926) 
34736

>  <alias>  (926) 
GEWOEHKMMCOADI-UHFFFAOYSA-N-P12

>  <subsites>  (926) 


>  <placement_batch>  (926) 
CpKRS_FrAncestor_bulkdock_iter2

>  <name>  (926) 
GEWOEHKMMCOADI-UHFFFAOYSA-N-P12

$$$$
IOCLKNMDKRMUQJ-UHFFFAOYSA-N-P13
     RDKit          3D

 16 17  0  0  0  0  0  0  0  0999 V2000
    3.1884   -9.0868   24.4591 C   0  0  0  0  0  0  0  0  0  0  0  0
    4.7068   -9.2573   24.4374 C   0  0  2  0  0  0  0  0  0  0  0  0
    5.3687   -8.3982   23.3555 C   0  0  0  0  0  0  0  0  0  0  0  0
    5.1732   -9.2121   22.0851 C   0  0  0  0  0  0  0  0  0  0  0  0
    5.4086  -10.6529   22.5420 C   0  0  2  0  0  0  0  0  0  0  0  0
    4.6211  -11.6775   21.7700 C   0  0  0  0  0  0  0  0  0  0  0  0
    5.1856  -10.6677   24.0607 C   0  0  2  0  0  0  0  0  0  0  0  0
    4.3994  -11.7648   24.5550 N   0  0  0  0  0  0  0  0  0  0  0  0
    4.8116  -13.1911   24.9442 C   0  0  0  0  0  0  0  0  0  0  0  0
    5.8386  -13.7303   24.8549 O   0  0  0  0  0  0  0  0  0  0  0  0
    3.6660  -13.8447   25.5990 C   0  0  0  0  0  0  0  0  0  0  0  0
    3.7753  -15.0304   26.3085 C   0  0  0  0  0  0  0  0  0  0  0  0
    2.2809  -15.4126   27.0442 S   0  0  0  0  0  0  0  0  0  0  0  0
    1.6033  -14.0369   26.3232 C   0  0  0  0  0  0  0  0  0  0  0  0
   -0.0621  -13.6904   26.5579 Cl  0  0  0  0  0  0  0  0  0  0  0  0
    2.3846  -13.2724   25.6040 N   0  0  0  0  0  0  0  0  0  0  0  0
  2  1  1  6
  2  3  1  0
  3  4  1  0
  4  5  1  0
  5  6  1  6
  5  7  1  0
  7  8  1  6
  8  9  1  0
  9 10  2  0
  9 11  1  0
 11 12  2  0
 12 13  1  0
 13 14  1  0
 14 15  1  0
 14 16  2  0
  7  2  1  0
 16 11  1  0
M  END
>  <inchikey>  (927) 
IOCLKNMDKRMUQJ-UHFFFAOYSA-N

>  <tags>  (927) 
fragmenstein_placed,CpKRS_FrAncestor_bulkdock_iter2

>  <ref_pdb>  (927) 
x0485c

>  <energy_score>  (927) 
-83.108147

>  <distance_score>  (927) 
0.403573

>  <HIPPO Pose ID>  (927) 
57303

>  <ref_mols>  (927) 
x0421c

>  <smiles>  (927) 
CC1CCC(C)C1NC(=O)c1csc(Cl)n1

>  <HIPPO Compound ID>  (927) 
34737

>  <alias>  (927) 
IOCLKNMDKRMUQJ-UHFFFAOYSA-N-P13

>  <subsites>  (927) 


>  <placement_batch>  (927) 
CpKRS_FrAncestor_bulkdock_iter2

>  <name>  (927) 
IOCLKNMDKRMUQJ-UHFFFAOYSA-N-P13

$$$$
UZEHZPHSECPVMS-UHFFFAOYSA-N-P13
     RDKit          3D

 17 18  0  0  0  0  0  0  0  0999 V2000
    3.2947   -8.8928   24.5924 C   0  0  0  0  0  0  0  0  0  0  0  0
    4.7520   -9.3221   24.4535 C   0  0  2  0  0  0  0  0  0  0  0  0
    5.4838   -8.5144   23.3705 C   0  0  0  0  0  0  0  0  0  0  0  0
    5.3545   -9.3177   22.0714 C   0  0  0  0  0  0  0  0  0  0  0  0
    4.6750  -10.6324   22.4608 C   0  0  1  0  0  0  0  0  0  0  0  0
    5.1855  -11.8336   21.7098 C   0  0  0  0  0  0  0  0  0  0  0  0
    4.9285  -10.7572   23.9550 C   0  0  0  0  0  0  0  0  0  0  0  0
    4.1099  -11.7605   24.5701 N   0  0  0  0  0  0  0  0  0  0  0  0
    4.4265  -13.2185   24.9411 C   0  0  0  0  0  0  0  0  0  0  0  0
    5.3773  -13.8605   24.7368 O   0  0  0  0  0  0  0  0  0  0  0  0
    3.2943  -13.7342   25.7159 C   0  0  0  0  0  0  0  0  0  0  0  0
    2.0889  -13.1702   25.7091 N   0  0  0  0  0  0  0  0  0  0  0  0
    1.3800  -13.8065   26.6963 C   0  0  0  0  0  0  0  0  0  0  0  0
    2.1641  -14.7440   27.3101 C   0  0  0  0  0  0  0  0  0  0  0  0
    1.8915  -15.6704   28.7068 Cl  0  0  0  0  0  0  0  0  0  0  0  0
    3.3409  -14.7769   26.6217 N   0  0  0  0  0  0  0  0  0  0  0  0
    4.4738  -15.6463   26.8215 C   0  0  0  0  0  0  0  0  0  0  0  0
  2  1  1  6
  2  3  1  0
  3  4  1  0
  4  5  1  0
  5  6  1  6
  5  7  1  0
  7  8  1  0
  8  9  1  0
  9 10  2  0
  9 11  1  0
 11 12  2  0
 12 13  1  0
 13 14  2  0
 14 15  1  0
 14 16  1  0
 16 17  1  0
  7  2  1  0
 16 11  1  0
M  END
>  <inchikey>  (928) 
UZEHZPHSECPVMS-UHFFFAOYSA-N

>  <tags>  (928) 
fragmenstein_placed,CpKRS_FrAncestor_bulkdock_iter2

>  <ref_pdb>  (928) 
x0485c

>  <energy_score>  (928) 
-1.602661

>  <distance_score>  (928) 
0.39814

>  <HIPPO Pose ID>  (928) 
57307

>  <ref_mols>  (928) 
x0421c

>  <smiles>  (928) 
CC1CCC(C)C1NC(=O)c1ncc(Cl)n1C

>  <HIPPO Compound ID>  (928) 
34738

>  <alias>  (928) 
UZEHZPHSECPVMS-UHFFFAOYSA-N-P13

>  <subsites>  (928) 


>  <placement_batch>  (928) 
CpKRS_FrAncestor_bulkdock_iter2

>  <name>  (928) 
UZEHZPHSECPVMS-UHFFFAOYSA-N-P13

$$$$
NFAOYEWLFFHVCD-UHFFFAOYSA-N-P14
     RDKit          3D

 18 19  0  0  0  0  0  0  0  0999 V2000
    5.4923   -8.6581   24.5527 C   0  0  0  0  0  0  0  0  0  0  0  0
    4.4778   -9.4042   23.6716 C   0  0  0  0  0  0  0  0  0  0  0  0
    3.0713   -9.2017   24.2521 C   0  0  0  0  0  0  0  0  0  0  0  0
    4.5433   -8.8149   22.2409 C   0  0  0  0  0  0  0  0  0  0  0  0
    5.1927   -9.8830   21.3806 C   0  0  0  0  0  0  0  0  0  0  0  0
    4.7469  -11.1859   22.0111 C   0  0  0  0  0  0  0  0  0  0  0  0
    4.8680  -10.9071   23.5021 C   0  0  2  0  0  0  0  0  0  0  0  0
    4.1146  -11.8629   24.2713 N   0  0  0  0  0  0  0  0  0  0  0  0
    4.5612  -13.1550   24.9702 C   0  0  0  0  0  0  0  0  0  0  0  0
    5.5925  -13.6938   24.9721 O   0  0  0  0  0  0  0  0  0  0  0  0
    3.4396  -13.6196   25.7961 C   0  0  0  0  0  0  0  0  0  0  0  0
    2.2007  -12.9681   25.8403 N   0  0  0  0  0  0  0  0  0  0  0  0
    1.5334  -13.6578   26.7332 C   0  0  0  0  0  0  0  0  0  0  0  0
    2.1965  -14.7041   27.2849 O   0  0  0  0  0  0  0  0  0  0  0  0
    3.4377  -14.6666   26.6962 C   0  0  0  0  0  0  0  0  0  0  0  0
    4.4076  -15.6896   27.1223 C   0  0  0  0  0  0  0  0  0  0  0  0
    4.4002  -16.7540   26.2730 F   0  0  0  0  0  0  0  0  0  0  0  0
    5.6904  -15.2514   27.1697 F   0  0  0  0  0  0  0  0  0  0  0  0
  1  2  1  0
  2  3  1  0
  2  4  1  0
  4  5  1  0
  5  6  1  0
  6  7  1  0
  7  8  1  1
  8  9  1  0
  9 10  2  0
  9 11  1  0
 11 12  1  0
 12 13  2  0
 13 14  1  0
 14 15  1  0
 15 16  1  0
 16 17  1  0
 16 18  1  0
  7  2  1  0
 15 11  2  0
M  END
>  <inchikey>  (929) 
NFAOYEWLFFHVCD-UHFFFAOYSA-N

>  <tags>  (929) 
fragmenstein_placed,CpKRS_FrAncestor_bulkdock_iter2

>  <ref_pdb>  (929) 
x0485c

>  <energy_score>  (929) 
-13.653135

>  <distance_score>  (929) 
0.456468

>  <HIPPO Pose ID>  (929) 
57312

>  <ref_mols>  (929) 
x0421d

>  <smiles>  (929) 
CC1(C)CCCC1NC(=O)c1ncoc1C(F)F

>  <HIPPO Compound ID>  (929) 
34739

>  <alias>  (929) 
NFAOYEWLFFHVCD-UHFFFAOYSA-N-P14

>  <subsites>  (929) 


>  <placement_batch>  (929) 
CpKRS_FrAncestor_bulkdock_iter2

>  <name>  (929) 
NFAOYEWLFFHVCD-UHFFFAOYSA-N-P14

$$$$
KJRJAVQDUISZEW-UHFFFAOYSA-N-P12
     RDKit          3D

 16 17  0  0  0  0  0  0  0  0999 V2000
    4.8425  -11.6861   21.8845 C   0  0  0  0  0  0  0  0  0  0  0  0
    4.0066  -10.4690   22.2495 C   0  0  2  0  0  0  0  0  0  0  0  0
    4.6410   -9.1969   21.7015 C   0  0  0  0  0  0  0  0  0  0  0  0
    5.7077   -8.8354   22.7230 C   0  0  0  0  0  0  0  0  0  0  0  0
    5.2549   -9.4529   24.0636 C   0  0  1  0  0  0  0  0  0  0  0  0
    5.1283   -8.3575   25.1144 C   0  0  0  0  0  0  0  0  0  0  0  0
    3.9193  -10.1515   23.7436 C   0  0  0  0  0  0  0  0  0  0  0  0
    3.5163  -11.2750   24.5460 N   0  0  0  0  0  0  0  0  0  0  0  0
    4.2550  -12.5893   24.8730 C   0  0  0  0  0  0  0  0  0  0  0  0
    5.3359  -12.9345   24.6070 O   0  0  0  0  0  0  0  0  0  0  0  0
    3.3189  -13.4255   25.6458 C   0  0  0  0  0  0  0  0  0  0  0  0
    1.9725  -13.0261   25.7623 N   0  0  0  0  0  0  0  0  0  0  0  0
    1.3375  -13.8441   26.5709 C   0  0  0  0  0  0  0  0  0  0  0  0
    2.2548  -15.1513   27.1854 S   0  0  0  0  0  0  0  0  0  0  0  0
    3.6094  -14.5863   26.3287 C   0  0  0  0  0  0  0  0  0  0  0  0
    5.0768  -15.4620   26.4651 Cl  0  0  0  0  0  0  0  0  0  0  0  0
  2  1  1  1
  2  3  1  0
  3  4  1  0
  4  5  1  0
  5  6  1  1
  5  7  1  0
  7  8  1  0
  8  9  1  0
  9 10  2  0
  9 11  1  0
 11 12  1  0
 12 13  2  0
 13 14  1  0
 14 15  1  0
 15 16  1  0
  7  2  1  0
 15 11  2  0
M  END
>  <inchikey>  (930) 
KJRJAVQDUISZEW-UHFFFAOYSA-N

>  <tags>  (930) 
fragmenstein_placed,CpKRS_FrAncestor_bulkdock_iter2

>  <ref_pdb>  (930) 
x0485c

>  <energy_score>  (930) 
-90.517207

>  <distance_score>  (930) 
0.562294

>  <HIPPO Pose ID>  (930) 
57314

>  <ref_mols>  (930) 
x0421b

>  <smiles>  (930) 
CC1CCC(C)C1NC(=O)c1ncsc1Cl

>  <HIPPO Compound ID>  (930) 
34740

>  <alias>  (930) 
KJRJAVQDUISZEW-UHFFFAOYSA-N-P12

>  <subsites>  (930) 


>  <placement_batch>  (930) 
CpKRS_FrAncestor_bulkdock_iter2

>  <name>  (930) 
KJRJAVQDUISZEW-UHFFFAOYSA-N-P12

$$$$
HFFICEUONYFJJN-UHFFFAOYSA-N-P12
     RDKit          3D

 16 17  0  0  0  0  0  0  0  0999 V2000
    6.0306   -8.8211   24.9190 C   0  0  0  0  0  0  0  0  0  0  0  0
    5.0255   -9.2642   23.8565 C   0  0  0  0  0  0  0  0  0  0  0  0
    3.6300   -8.8354   24.3137 C   0  0  0  0  0  0  0  0  0  0  0  0
    5.4281   -8.6200   22.5228 C   0  0  0  0  0  0  0  0  0  0  0  0
    4.6908   -9.4375   21.4881 C   0  0  0  0  0  0  0  0  0  0  0  0
    4.6894  -10.8633   22.0178 C   0  0  0  0  0  0  0  0  0  0  0  0
    5.0781  -10.7661   23.4967 C   0  0  2  0  0  0  0  0  0  0  0  0
    4.2626  -11.6425   24.2860 N   0  0  0  0  0  0  0  0  0  0  0  0
    4.5153  -13.0814   24.7633 C   0  0  0  0  0  0  0  0  0  0  0  0
    5.4574  -13.7572   24.6571 O   0  0  0  0  0  0  0  0  0  0  0  0
    3.3096  -13.5470   25.4685 C   0  0  0  0  0  0  0  0  0  0  0  0
    2.1252  -12.9211   25.2978 N   0  0  0  0  0  0  0  0  0  0  0  0
    1.2360  -13.5475   26.1558 O   0  0  0  0  0  0  0  0  0  0  0  0
    1.8748  -14.5407   26.8184 C   0  0  0  0  0  0  0  0  0  0  0  0
    3.1684  -14.5999   26.3917 C   0  0  0  0  0  0  0  0  0  0  0  0
    4.4893  -15.7742   26.9699 Br  0  0  0  0  0  0  0  0  0  0  0  0
  1  2  1  0
  2  3  1  0
  2  4  1  0
  4  5  1  0
  5  6  1  0
  6  7  1  0
  7  8  1  1
  8  9  1  0
  9 10  2  0
  9 11  1  0
 11 12  2  0
 12 13  1  0
 13 14  1  0
 14 15  2  0
 15 16  1  0
  7  2  1  0
 15 11  1  0
M  END
>  <inchikey>  (931) 
HFFICEUONYFJJN-UHFFFAOYSA-N

>  <tags>  (931) 
fragmenstein_placed,CpKRS_FrAncestor_bulkdock_iter2

>  <ref_pdb>  (931) 
x0485c

>  <energy_score>  (931) 
-39.297016

>  <distance_score>  (931) 
0.341128

>  <HIPPO Pose ID>  (931) 
57318

>  <ref_mols>  (931) 
x0421b

>  <smiles>  (931) 
CC1(C)CCCC1NC(=O)c1nocc1Br

>  <HIPPO Compound ID>  (931) 
34741

>  <alias>  (931) 
HFFICEUONYFJJN-UHFFFAOYSA-N-P12

>  <subsites>  (931) 


>  <placement_batch>  (931) 
CpKRS_FrAncestor_bulkdock_iter2

>  <name>  (931) 
HFFICEUONYFJJN-UHFFFAOYSA-N-P12

$$$$
DRDIMGGDSCBXSZ-UHFFFAOYSA-N-P12
     RDKit          3D

 16 17  0  0  0  0  0  0  0  0999 V2000
    3.7609   -8.6522   24.7308 C   0  0  0  0  0  0  0  0  0  0  0  0
    5.1264   -9.1988   24.3732 C   0  0  2  0  0  0  0  0  0  0  0  0
    5.7695   -8.3746   23.2513 C   0  0  0  0  0  0  0  0  0  0  0  0
    5.5191   -9.1385   21.9499 C   0  0  0  0  0  0  0  0  0  0  0  0
    4.7011  -10.3666   22.3390 C   0  0  1  0  0  0  0  0  0  0  0  0
    4.9846  -11.5820   21.4958 C   0  0  0  0  0  0  0  0  0  0  0  0
    5.0785  -10.6066   23.7895 C   0  0  0  0  0  0  0  0  0  0  0  0
    4.2042  -11.5536   24.4131 N   0  0  0  0  0  0  0  0  0  0  0  0
    4.4250  -13.0340   24.7689 C   0  0  0  0  0  0  0  0  0  0  0  0
    5.3240  -13.7387   24.5424 O   0  0  0  0  0  0  0  0  0  0  0  0
    3.2453  -13.5171   25.5002 C   0  0  0  0  0  0  0  0  0  0  0  0
    2.0553  -12.8917   25.3834 N   0  0  0  0  0  0  0  0  0  0  0  0
    1.1974  -13.5424   26.2556 O   0  0  0  0  0  0  0  0  0  0  0  0
    1.8625  -14.5466   26.8751 C   0  0  0  0  0  0  0  0  0  0  0  0
    3.1409  -14.5914   26.4036 C   0  0  0  0  0  0  0  0  0  0  0  0
    4.4894  -15.7667   26.9162 Br  0  0  0  0  0  0  0  0  0  0  0  0
  2  1  1  6
  2  3  1  0
  3  4  1  0
  4  5  1  0
  5  6  1  6
  5  7  1  0
  7  8  1  0
  8  9  1  0
  9 10  2  0
  9 11  1  0
 11 12  2  0
 12 13  1  0
 13 14  1  0
 14 15  2  0
 15 16  1  0
  7  2  1  0
 15 11  1  0
M  END
>  <inchikey>  (932) 
DRDIMGGDSCBXSZ-UHFFFAOYSA-N

>  <tags>  (932) 
fragmenstein_placed,CpKRS_FrAncestor_bulkdock_iter2

>  <ref_pdb>  (932) 
x0485c

>  <energy_score>  (932) 
-12.175789

>  <distance_score>  (932) 
0.339927

>  <HIPPO Pose ID>  (932) 
57322

>  <ref_mols>  (932) 
x0421b

>  <smiles>  (932) 
CC1CCC(C)C1NC(=O)c1nocc1Br

>  <HIPPO Compound ID>  (932) 
34742

>  <alias>  (932) 
DRDIMGGDSCBXSZ-UHFFFAOYSA-N-P12

>  <subsites>  (932) 


>  <placement_batch>  (932) 
CpKRS_FrAncestor_bulkdock_iter2

>  <name>  (932) 
DRDIMGGDSCBXSZ-UHFFFAOYSA-N-P12

$$$$
VAASFDOOPMQTNH-UHFFFAOYSA-N-P12
     RDKit          3D

 16 17  0  0  0  0  0  0  0  0999 V2000
    3.7096   -8.7019   24.6933 C   0  0  0  0  0  0  0  0  0  0  0  0
    5.0871   -9.2409   24.3716 C   0  0  2  0  0  0  0  0  0  0  0  0
    5.7424   -8.4270   23.2484 C   0  0  0  0  0  0  0  0  0  0  0  0
    5.4827   -9.1930   21.9498 C   0  0  0  0  0  0  0  0  0  0  0  0
    4.6880  -10.4341   22.3504 C   0  0  1  0  0  0  0  0  0  0  0  0
    4.9919  -11.6519   21.5193 C   0  0  0  0  0  0  0  0  0  0  0  0
    5.0669  -10.6568   23.8038 C   0  0  0  0  0  0  0  0  0  0  0  0
    4.2178  -11.6265   24.4329 N   0  0  0  0  0  0  0  0  0  0  0  0
    4.4932  -13.0890   24.8314 C   0  0  0  0  0  0  0  0  0  0  0  0
    5.4266  -13.7598   24.6427 O   0  0  0  0  0  0  0  0  0  0  0  0
    3.3408  -13.5968   25.5897 C   0  0  0  0  0  0  0  0  0  0  0  0
    2.1350  -12.9987   25.5022 N   0  0  0  0  0  0  0  0  0  0  0  0
    1.3152  -13.6727   26.3908 O   0  0  0  0  0  0  0  0  0  0  0  0
    2.0197  -14.6597   26.9912 C   0  0  0  0  0  0  0  0  0  0  0  0
    3.2955  -14.6788   26.4997 C   0  0  0  0  0  0  0  0  0  0  0  0
    4.5480  -15.7220   26.9460 Cl  0  0  0  0  0  0  0  0  0  0  0  0
  2  1  1  6
  2  3  1  0
  3  4  1  0
  4  5  1  0
  5  6  1  6
  5  7  1  0
  7  8  1  0
  8  9  1  0
  9 10  2  0
  9 11  1  0
 11 12  2  0
 12 13  1  0
 13 14  1  0
 14 15  2  0
 15 16  1  0
  7  2  1  0
 15 11  1  0
M  END
>  <inchikey>  (933) 
VAASFDOOPMQTNH-UHFFFAOYSA-N

>  <tags>  (933) 
fragmenstein_placed,CpKRS_FrAncestor_bulkdock_iter2

>  <ref_pdb>  (933) 
x0485c

>  <energy_score>  (933) 
-8.256368

>  <distance_score>  (933) 
0.302979

>  <HIPPO Pose ID>  (933) 
57326

>  <ref_mols>  (933) 
x0421b

>  <smiles>  (933) 
CC1CCC(C)C1NC(=O)c1nocc1Cl

>  <HIPPO Compound ID>  (933) 
34743

>  <alias>  (933) 
VAASFDOOPMQTNH-UHFFFAOYSA-N-P12

>  <subsites>  (933) 


>  <placement_batch>  (933) 
CpKRS_FrAncestor_bulkdock_iter2

>  <name>  (933) 
VAASFDOOPMQTNH-UHFFFAOYSA-N-P12

$$$$
HFSHDKBSBJTAGY-UHFFFAOYSA-N-P12
     RDKit          3D

 16 17  0  0  0  0  0  0  0  0999 V2000
    5.9923   -8.8417   24.9378 C   0  0  0  0  0  0  0  0  0  0  0  0
    5.0035   -9.3017   23.8667 C   0  0  0  0  0  0  0  0  0  0  0  0
    3.5983   -8.8779   24.2972 C   0  0  0  0  0  0  0  0  0  0  0  0
    5.4228   -8.6618   22.5349 C   0  0  0  0  0  0  0  0  0  0  0  0
    4.7051   -9.4855   21.4912 C   0  0  0  0  0  0  0  0  0  0  0  0
    4.6692  -10.9055   22.0368 C   0  0  0  0  0  0  0  0  0  0  0  0
    5.0720  -10.8051   23.5119 C   0  0  2  0  0  0  0  0  0  0  0  0
    4.2845  -11.7051   24.3061 N   0  0  0  0  0  0  0  0  0  0  0  0
    4.5997  -13.1207   24.8219 C   0  0  0  0  0  0  0  0  0  0  0  0
    5.5770  -13.7502   24.7495 O   0  0  0  0  0  0  0  0  0  0  0  0
    3.4238  -13.6226   25.5519 C   0  0  0  0  0  0  0  0  0  0  0  0
    2.2179  -13.0325   25.4114 N   0  0  0  0  0  0  0  0  0  0  0  0
    1.3704  -13.6930   26.2834 O   0  0  0  0  0  0  0  0  0  0  0  0
    2.0565  -14.6672   26.9243 C   0  0  0  0  0  0  0  0  0  0  0  0
    3.3492  -14.6884   26.4788 C   0  0  0  0  0  0  0  0  0  0  0  0
    4.5860  -15.7233   26.9818 Cl  0  0  0  0  0  0  0  0  0  0  0  0
  1  2  1  0
  2  3  1  0
  2  4  1  0
  4  5  1  0
  5  6  1  0
  6  7  1  0
  7  8  1  1
  8  9  1  0
  9 10  2  0
  9 11  1  0
 11 12  2  0
 12 13  1  0
 13 14  1  0
 14 15  2  0
 15 16  1  0
  7  2  1  0
 15 11  1  0
M  END
>  <inchikey>  (934) 
HFSHDKBSBJTAGY-UHFFFAOYSA-N

>  <tags>  (934) 
fragmenstein_placed,CpKRS_FrAncestor_bulkdock_iter2

>  <ref_pdb>  (934) 
x0485c

>  <energy_score>  (934) 
-37.509121

>  <distance_score>  (934) 
0.322367

>  <HIPPO Pose ID>  (934) 
57330

>  <ref_mols>  (934) 
x0421b

>  <smiles>  (934) 
CC1(C)CCCC1NC(=O)c1nocc1Cl

>  <HIPPO Compound ID>  (934) 
34744

>  <alias>  (934) 
HFSHDKBSBJTAGY-UHFFFAOYSA-N-P12

>  <subsites>  (934) 


>  <placement_batch>  (934) 
CpKRS_FrAncestor_bulkdock_iter2

>  <name>  (934) 
HFSHDKBSBJTAGY-UHFFFAOYSA-N-P12

$$$$
ZOJXSTUSHIAIOC-UHFFFAOYSA-N-P11
     RDKit          3D

 16 17  0  0  0  0  0  0  0  0999 V2000
    5.1506   -8.6984   24.8132 C   0  0  0  0  0  0  0  0  0  0  0  0
    4.3500   -9.5352   23.8059 C   0  0  0  0  0  0  0  0  0  0  0  0
    2.8598   -9.4864   24.1886 C   0  0  0  0  0  0  0  0  0  0  0  0
    4.5523   -8.9459   22.3849 C   0  0  0  0  0  0  0  0  0  0  0  0
    5.2619  -10.0147   21.5685 C   0  0  0  0  0  0  0  0  0  0  0  0
    4.8526  -11.3208   22.2193 C   0  0  0  0  0  0  0  0  0  0  0  0
    4.9037  -10.9859   23.7053 C   0  0  2  0  0  0  0  0  0  0  0  0
    4.2411  -11.9884   24.4935 N   0  0  0  0  0  0  0  0  0  0  0  0
    4.7861  -13.2772   25.1363 C   0  0  0  0  0  0  0  0  0  0  0  0
    5.8741  -13.6908   25.1934 O   0  0  0  0  0  0  0  0  0  0  0  0
    3.6899  -13.9507   25.8188 C   0  0  0  0  0  0  0  0  0  0  0  0
    2.4083  -13.4385   25.7506 O   0  0  0  0  0  0  0  0  0  0  0  0
    1.6148  -14.2565   26.4982 C   0  0  0  0  0  0  0  0  0  0  0  0
    2.3475  -15.2817   27.0504 C   0  0  0  0  0  0  0  0  0  0  0  0
    3.6675  -15.0677   26.6184 C   0  0  0  0  0  0  0  0  0  0  0  0
    4.7206  -15.8268   26.9429 F   0  0  0  0  0  0  0  0  0  0  0  0
  1  2  1  0
  2  3  1  0
  2  4  1  0
  4  5  1  0
  5  6  1  0
  6  7  1  0
  7  8  1  1
  8  9  1  0
  9 10  2  0
  9 11  1  0
 11 12  1  0
 12 13  1  0
 13 14  2  0
 14 15  1  0
 15 16  1  0
  7  2  1  0
 15 11  2  0
M  END
>  <inchikey>  (935) 
ZOJXSTUSHIAIOC-UHFFFAOYSA-N

>  <tags>  (935) 
fragmenstein_placed,CpKRS_FrAncestor_bulkdock_iter2

>  <ref_pdb>  (935) 
x0485c

>  <energy_score>  (935) 
-3.741702

>  <distance_score>  (935) 
0.594923

>  <HIPPO Pose ID>  (935) 
57333

>  <ref_mols>  (935) 
x0421a

>  <smiles>  (935) 
CC1(C)CCCC1NC(=O)c1occc1F

>  <HIPPO Compound ID>  (935) 
34745

>  <alias>  (935) 
ZOJXSTUSHIAIOC-UHFFFAOYSA-N-P11

>  <subsites>  (935) 


>  <placement_batch>  (935) 
CpKRS_FrAncestor_bulkdock_iter2

>  <name>  (935) 
ZOJXSTUSHIAIOC-UHFFFAOYSA-N-P11

$$$$
YIOBFMMOQGDNAN-UHFFFAOYSA-N-P13
     RDKit          3D

 16 17  0  0  0  0  0  0  0  0999 V2000
    5.8710   -8.5228   24.6712 C   0  0  0  0  0  0  0  0  0  0  0  0
    4.7687   -9.1797   23.8262 C   0  0  0  0  0  0  0  0  0  0  0  0
    3.4180   -8.9018   24.4953 C   0  0  0  0  0  0  0  0  0  0  0  0
    4.7920   -8.5850   22.4004 C   0  0  0  0  0  0  0  0  0  0  0  0
    5.4283   -9.6435   21.5194 C   0  0  0  0  0  0  0  0  0  0  0  0
    4.9483  -10.9437   22.1234 C   0  0  0  0  0  0  0  0  0  0  0  0
    5.0692  -10.6904   23.6190 C   0  0  2  0  0  0  0  0  0  0  0  0
    4.2622  -11.6137   24.3614 N   0  0  0  0  0  0  0  0  0  0  0  0
    4.5215  -13.0752   24.7506 C   0  0  0  0  0  0  0  0  0  0  0  0
    5.4635  -13.7404   24.5976 O   0  0  0  0  0  0  0  0  0  0  0  0
    3.3663  -13.5835   25.4672 C   0  0  0  0  0  0  0  0  0  0  0  0
    2.1809  -12.8982   25.4363 O   0  0  0  0  0  0  0  0  0  0  0  0
    1.2389  -13.5528   26.2241 N   0  0  0  0  0  0  0  0  0  0  0  0
    1.8800  -14.6130   26.7251 C   0  0  0  0  0  0  0  0  0  0  0  0
    3.1958  -14.6807   26.2651 C   0  0  0  0  0  0  0  0  0  0  0  0
    4.4355  -15.9805   26.7267 Br  0  0  0  0  0  0  0  0  0  0  0  0
  1  2  1  0
  2  3  1  0
  2  4  1  0
  4  5  1  0
  5  6  1  0
  6  7  1  0
  7  8  1  1
  8  9  1  0
  9 10  2  0
  9 11  1  0
 11 12  1  0
 12 13  1  0
 13 14  2  0
 14 15  1  0
 15 16  1  0
  7  2  1  0
 15 11  2  0
M  END
>  <inchikey>  (936) 
YIOBFMMOQGDNAN-UHFFFAOYSA-N

>  <tags>  (936) 
fragmenstein_placed,CpKRS_FrAncestor_bulkdock_iter2

>  <ref_pdb>  (936) 
x0485c

>  <energy_score>  (936) 
-18.55351

>  <distance_score>  (936) 
0.41271

>  <HIPPO Pose ID>  (936) 
57339

>  <ref_mols>  (936) 
x0421c

>  <smiles>  (936) 
CC1(C)CCCC1NC(=O)c1oncc1Br

>  <HIPPO Compound ID>  (936) 
34746

>  <alias>  (936) 
YIOBFMMOQGDNAN-UHFFFAOYSA-N-P13

>  <subsites>  (936) 


>  <placement_batch>  (936) 
CpKRS_FrAncestor_bulkdock_iter2

>  <name>  (936) 
YIOBFMMOQGDNAN-UHFFFAOYSA-N-P13

$$$$
DZBBHJNSUSICFM-UHFFFAOYSA-N-P60
     RDKit          3D

 18 19  0  0  0  0  0  0  0  0999 V2000
   -0.7750  -23.7198   23.1120 C   0  0  0  0  0  0  0  0  0  0  0  0
   -1.3309  -24.8580   23.9126 C   0  0  0  0  0  0  0  0  0  0  0  0
   -1.9843  -24.6409   25.1310 C   0  0  0  0  0  0  0  0  0  0  0  0
   -2.6153  -25.6963   25.8016 C   0  0  0  0  0  0  0  0  0  0  0  0
   -3.3157  -25.4508   27.1034 C   0  0  0  0  0  0  0  0  0  0  0  0
   -2.5714  -26.9821   25.2476 C   0  0  0  0  0  0  0  0  0  0  0  0
   -1.9161  -27.2171   24.0304 C   0  0  0  0  0  0  0  0  0  0  0  0
   -1.9349  -28.5864   23.3778 C   0  0  0  0  0  0  0  0  0  0  0  0
   -0.6346  -29.2778   23.3896 N   0  0  0  0  0  0  0  0  0  0  0  0
   -0.1987  -29.5687   24.7741 C   0  0  0  0  0  0  0  0  0  0  0  0
   -1.0512  -30.6332   25.4874 C   0  0  0  0  0  0  0  0  0  0  0  0
   -1.3278  -31.8070   24.5999 C   0  0  0  0  0  0  0  0  0  0  0  0
   -1.0771  -31.7570   23.2827 C   0  0  0  0  0  0  0  0  0  0  0  0
   -0.5712  -30.5186   22.5416 C   0  0  1  0  0  0  0  0  0  0  0  0
   -1.3987  -30.4011   21.2352 C   0  0  0  0  0  0  0  0  0  0  0  0
    0.9257  -30.7552   22.1241 C   0  0  0  0  0  0  0  0  0  0  0  0
    1.0879  -31.8126   21.1693 O   0  0  0  0  0  0  0  0  0  0  0  0
   -1.2819  -26.1501   23.3824 C   0  0  0  0  0  0  0  0  0  0  0  0
  1  2  1  0
  2  3  2  0
  3  4  1  0
  4  5  1  0
  4  6  2  0
  6  7  1  0
  7  8  1  0
  8  9  1  0
  9 10  1  0
 10 11  1  0
 11 12  1  0
 12 13  2  0
 13 14  1  0
 14 15  1  6
 14 16  1  0
 16 17  1  0
  7 18  2  0
 18  2  1  0
 14  9  1  0
M  END
>  <inchikey>  (937) 
DZBBHJNSUSICFM-UHFFFAOYSA-N

>  <tags>  (937) 
fragmenstein_placed,CpKRS_FrAncestor_bulkdock_iter2

>  <ref_pdb>  (937) 
x0485c

>  <energy_score>  (937) 
-26.768441

>  <distance_score>  (937) 
0.55243

>  <HIPPO Pose ID>  (937) 
57342

>  <ref_mols>  (937) 
x0675b

>  <smiles>  (937) 
Cc1cc(C)cc(CN2CCC=CC2(C)CO)c1

>  <HIPPO Compound ID>  (937) 
34747

>  <alias>  (937) 
DZBBHJNSUSICFM-UHFFFAOYSA-N-P60

>  <subsites>  (937) 


>  <placement_batch>  (937) 
CpKRS_FrAncestor_bulkdock_iter2

>  <name>  (937) 
DZBBHJNSUSICFM-UHFFFAOYSA-N-P60

$$$$
QRLPVMZFFLPQJC-UHFFFAOYSA-N-P59
     RDKit          3D

 15 16  0  0  0  0  0  0  0  0999 V2000
    3.0224  -20.0681   22.9334 C   0  0  0  0  0  0  0  0  0  0  0  0
    3.8571  -20.8673   21.9827 C   0  0  0  0  0  0  0  0  0  0  0  0
    5.0044  -20.3274   21.4260 C   0  0  0  0  0  0  0  0  0  0  0  0
    5.8023  -21.1255   20.6216 C   0  0  0  0  0  0  0  0  0  0  0  0
    5.4167  -22.4365   20.3684 C   0  0  0  0  0  0  0  0  0  0  0  0
    4.2371  -22.9202   20.9378 C   0  0  0  0  0  0  0  0  0  0  0  0
    3.8453  -24.3972   20.7852 C   0  0  1  0  0  0  0  0  0  0  0  0
    2.9161  -24.7935   21.9502 C   0  0  0  0  0  0  0  0  0  0  0  0
    3.1622  -24.8043   19.5380 N   0  0  0  0  0  0  0  0  0  0  0  0
    3.4579  -24.0202   18.3382 C   0  0  0  0  0  0  0  0  0  0  0  0
    2.7741  -24.5616   17.1089 C   0  0  0  0  0  0  0  0  0  0  0  0
    2.2231  -25.7819   17.0433 C   0  0  0  0  0  0  0  0  0  0  0  0
    2.2793  -26.7046   18.2218 C   0  0  0  0  0  0  0  0  0  0  0  0
    3.2936  -26.2458   19.2780 C   0  0  0  0  0  0  0  0  0  0  0  0
    3.4632  -22.1343   21.7321 N   0  0  0  0  0  0  0  0  0  0  0  0
  1  2  1  0
  2  3  2  0
  3  4  1  0
  4  5  2  0
  5  6  1  0
  6  7  1  0
  7  8  1  1
  7  9  1  0
  9 10  1  0
 10 11  1  0
 11 12  2  0
 12 13  1  0
 13 14  1  0
  6 15  2  0
 15  2  1  0
 14  9  1  0
M  END
>  <inchikey>  (938) 
QRLPVMZFFLPQJC-UHFFFAOYSA-N

>  <tags>  (938) 
fragmenstein_placed,CpKRS_FrAncestor_bulkdock_iter2

>  <ref_pdb>  (938) 
x0485c

>  <energy_score>  (938) 
-33.130886

>  <distance_score>  (938) 
0.454477

>  <HIPPO Pose ID>  (938) 
57343

>  <ref_mols>  (938) 
x0675a

>  <smiles>  (938) 
Cc1cccc(C(C)N2CC=CCC2)n1

>  <HIPPO Compound ID>  (938) 
34748

>  <alias>  (938) 
QRLPVMZFFLPQJC-UHFFFAOYSA-N-P59

>  <subsites>  (938) 


>  <placement_batch>  (938) 
CpKRS_FrAncestor_bulkdock_iter2

>  <name>  (938) 
QRLPVMZFFLPQJC-UHFFFAOYSA-N-P59

$$$$
MVSZUIBOBVETEN-UHFFFAOYSA-N-P60
     RDKit          3D

 16 17  0  0  0  0  0  0  0  0999 V2000
   -3.6380  -25.5189   27.0822 C   0  0  0  0  0  0  0  0  0  0  0  0
   -2.7757  -25.7035   25.8706 C   0  0  0  0  0  0  0  0  0  0  0  0
   -1.9903  -24.6476   25.4013 C   0  0  0  0  0  0  0  0  0  0  0  0
   -1.1723  -24.8196   24.2863 C   0  0  0  0  0  0  0  0  0  0  0  0
   -1.1097  -26.0535   23.6426 C   0  0  0  0  0  0  0  0  0  0  0  0
   -1.8987  -27.1257   24.0835 C   0  0  0  0  0  0  0  0  0  0  0  0
   -1.8766  -28.4789   23.3606 C   0  0  1  0  0  0  0  0  0  0  0  0
   -2.3162  -28.2446   21.9010 C   0  0  0  0  0  0  0  0  0  0  0  0
   -0.5499  -29.1326   23.4942 N   0  0  0  0  0  0  0  0  0  0  0  0
   -0.3863  -30.3655   22.6920 C   0  0  0  0  0  0  0  0  0  0  0  0
   -0.8935  -31.6890   23.3341 C   0  0  0  0  0  0  0  0  0  0  0  0
   -1.7897  -31.4878   24.4815 N   0  0  0  0  0  0  0  0  0  0  0  0
   -2.2294  -32.7523   25.0574 C   0  0  0  0  0  0  0  0  0  0  0  0
   -1.1548  -30.6214   25.4911 C   0  0  0  0  0  0  0  0  0  0  0  0
   -0.2657  -29.4927   24.8993 C   0  0  0  0  0  0  0  0  0  0  0  0
   -2.7209  -26.9388   25.2097 C   0  0  0  0  0  0  0  0  0  0  0  0
  1  2  1  0
  2  3  2  0
  3  4  1  0
  4  5  2  0
  5  6  1  0
  6  7  1  0
  7  8  1  6
  7  9  1  0
  9 10  1  0
 10 11  1  0
 11 12  1  0
 12 13  1  0
 12 14  1  0
 14 15  1  0
  6 16  2  0
 16  2  1  0
 15  9  1  0
M  END
>  <inchikey>  (939) 
MVSZUIBOBVETEN-UHFFFAOYSA-N

>  <tags>  (939) 
fragmenstein_placed,CpKRS_FrAncestor_bulkdock_iter2

>  <ref_pdb>  (939) 
x0485c

>  <energy_score>  (939) 
-40.445704

>  <distance_score>  (939) 
0.424048

>  <HIPPO Pose ID>  (939) 
57346

>  <ref_mols>  (939) 
x0675b

>  <smiles>  (939) 
Cc1cccc(C(C)N2CCN(C)CC2)c1

>  <HIPPO Compound ID>  (939) 
34749

>  <alias>  (939) 
MVSZUIBOBVETEN-UHFFFAOYSA-N-P60

>  <subsites>  (939) 


>  <placement_batch>  (939) 
CpKRS_FrAncestor_bulkdock_iter2

>  <name>  (939) 
MVSZUIBOBVETEN-UHFFFAOYSA-N-P60

$$$$
ZLFULHUPQWSUGR-UHFFFAOYSA-N-P59
     RDKit          3D

 16 17  0  0  0  0  0  0  0  0999 V2000
    2.9957  -20.0213   22.9284 C   0  0  0  0  0  0  0  0  0  0  0  0
    3.8629  -20.8331   22.0187 C   0  0  0  0  0  0  0  0  0  0  0  0
    4.9935  -20.2814   21.4387 C   0  0  0  0  0  0  0  0  0  0  0  0
    5.8392  -21.0967   20.7028 C   0  0  0  0  0  0  0  0  0  0  0  0
    5.5135  -22.4377   20.5380 C   0  0  0  0  0  0  0  0  0  0  0  0
    4.3334  -22.9260   21.0993 C   0  0  0  0  0  0  0  0  0  0  0  0
    3.9278  -24.4009   20.9567 C   0  0  1  0  0  0  0  0  0  0  0  0
    2.7732  -24.7447   21.9158 C   0  0  0  0  0  0  0  0  0  0  0  0
    3.7122  -24.8709   19.5643 N   0  0  0  0  0  0  0  0  0  0  0  0
    3.0408  -26.1792   19.4826 C   0  0  0  0  0  0  0  0  0  0  0  0
    2.8613  -26.5651   18.0186 C   0  0  0  0  0  0  0  0  0  0  0  0
    2.0223  -25.6851   17.2654 O   0  0  0  0  0  0  0  0  0  0  0  0
    1.8186  -24.4241   17.9168 C   0  0  0  0  0  0  0  0  0  0  0  0
    3.0707  -23.8926   18.6560 C   0  0  2  0  0  0  0  0  0  0  0  0
    4.1327  -23.5019   17.6317 C   0  0  0  0  0  0  0  0  0  0  0  0
    3.5156  -22.1238   21.8320 N   0  0  0  0  0  0  0  0  0  0  0  0
  1  2  1  0
  2  3  2  0
  3  4  1  0
  4  5  2  0
  5  6  1  0
  6  7  1  0
  7  8  1  1
  7  9  1  0
  9 10  1  0
 10 11  1  0
 11 12  1  0
 12 13  1  0
 13 14  1  0
 14 15  1  6
  6 16  2  0
 16  2  1  0
 14  9  1  0
M  END
>  <inchikey>  (940) 
ZLFULHUPQWSUGR-UHFFFAOYSA-N

>  <tags>  (940) 
fragmenstein_placed,CpKRS_FrAncestor_bulkdock_iter2

>  <ref_pdb>  (940) 
x0485c

>  <energy_score>  (940) 
-24.473284

>  <distance_score>  (940) 
0.468335

>  <HIPPO Pose ID>  (940) 
57347

>  <ref_mols>  (940) 
x0675a

>  <smiles>  (940) 
Cc1cccc(C(C)N2CCOCC2C)n1

>  <HIPPO Compound ID>  (940) 
34750

>  <alias>  (940) 
ZLFULHUPQWSUGR-UHFFFAOYSA-N-P59

>  <subsites>  (940) 


>  <placement_batch>  (940) 
CpKRS_FrAncestor_bulkdock_iter2

>  <name>  (940) 
ZLFULHUPQWSUGR-UHFFFAOYSA-N-P59

$$$$
DJCMAMGIZCWBKR-UHFFFAOYSA-N-P60
     RDKit          3D

 15 16  0  0  0  0  0  0  0  0999 V2000
   -3.6313  -25.5120   26.9957 C   0  0  0  0  0  0  0  0  0  0  0  0
   -2.7507  -25.6451   25.7905 C   0  0  0  0  0  0  0  0  0  0  0  0
   -1.9749  -24.5732   25.3752 C   0  0  0  0  0  0  0  0  0  0  0  0
   -1.1501  -24.7362   24.2702 C   0  0  0  0  0  0  0  0  0  0  0  0
   -1.1023  -25.9628   23.6214 C   0  0  0  0  0  0  0  0  0  0  0  0
   -1.9367  -26.9861   24.0629 C   0  0  0  0  0  0  0  0  0  0  0  0
   -2.0065  -28.3326   23.3294 C   0  0  1  0  0  0  0  0  0  0  0  0
   -2.2293  -28.0754   21.8231 C   0  0  0  0  0  0  0  0  0  0  0  0
   -0.8349  -29.2124   23.6031 N   0  0  0  0  0  0  0  0  0  0  0  0
   -0.7319  -29.5658   25.0392 C   0  0  0  0  0  0  0  0  0  0  0  0
   -1.4932  -30.8485   25.4071 C   0  0  0  0  0  0  0  0  0  0  0  0
   -1.0349  -32.0071   24.6954 O   0  0  0  0  0  0  0  0  0  0  0  0
   -0.2932  -31.6783   23.5117 C   0  0  0  0  0  0  0  0  0  0  0  0
   -0.8871  -30.4576   22.7937 C   0  0  0  0  0  0  0  0  0  0  0  0
   -2.7460  -26.8385   25.1514 N   0  0  0  0  0  0  0  0  0  0  0  0
  1  2  1  0
  2  3  2  0
  3  4  1  0
  4  5  2  0
  5  6  1  0
  6  7  1  0
  7  8  1  6
  7  9  1  0
  9 10  1  0
 10 11  1  0
 11 12  1  0
 12 13  1  0
 13 14  1  0
  6 15  2  0
 15  2  1  0
 14  9  1  0
M  END
>  <inchikey>  (941) 
DJCMAMGIZCWBKR-UHFFFAOYSA-N

>  <tags>  (941) 
fragmenstein_placed,CpKRS_FrAncestor_bulkdock_iter2

>  <ref_pdb>  (941) 
x0485c

>  <energy_score>  (941) 
-27.959335

>  <distance_score>  (941) 
0.426401

>  <HIPPO Pose ID>  (941) 
57350

>  <ref_mols>  (941) 
x0675b

>  <smiles>  (941) 
Cc1cccc(C(C)N2CCOCC2)n1

>  <HIPPO Compound ID>  (941) 
34751

>  <alias>  (941) 
DJCMAMGIZCWBKR-UHFFFAOYSA-N-P60

>  <subsites>  (941) 


>  <placement_batch>  (941) 
CpKRS_FrAncestor_bulkdock_iter2

>  <name>  (941) 
DJCMAMGIZCWBKR-UHFFFAOYSA-N-P60

$$$$
PLVKZAZSHMHQQG-UHFFFAOYSA-N-P60
     RDKit          3D

 15 16  0  0  0  0  0  0  0  0999 V2000
   -3.7122  -25.4748   27.0655 C   0  0  0  0  0  0  0  0  0  0  0  0
   -2.8281  -25.6267   25.8661 C   0  0  0  0  0  0  0  0  0  0  0  0
   -2.0402  -24.5621   25.4349 C   0  0  0  0  0  0  0  0  0  0  0  0
   -1.1962  -24.7100   24.3341 C   0  0  0  0  0  0  0  0  0  0  0  0
   -1.0892  -25.9320   23.6567 C   0  0  0  0  0  0  0  0  0  0  0  0
   -0.1408  -26.0418   22.4944 C   0  0  0  0  0  0  0  0  0  0  0  0
   -1.8968  -27.0099   24.0669 C   0  0  0  0  0  0  0  0  0  0  0  0
   -1.8963  -28.3419   23.3395 C   0  0  0  0  0  0  0  0  0  0  0  0
   -0.7684  -29.2282   23.6726 N   0  0  0  0  0  0  0  0  0  0  0  0
   -0.7214  -30.3518   22.7128 C   0  0  0  0  0  0  0  0  0  0  0  0
   -0.2237  -31.6924   23.2646 C   0  0  0  0  0  0  0  0  0  0  0  0
   -1.3554  -32.3526   24.5375 S   0  0  0  0  0  0  0  0  0  0  0  0
   -1.7201  -30.8029   25.4269 C   0  0  0  0  0  0  0  0  0  0  0  0
   -0.7560  -29.6668   25.0752 C   0  0  0  0  0  0  0  0  0  0  0  0
   -2.7524  -26.8417   25.1764 C   0  0  0  0  0  0  0  0  0  0  0  0
  1  2  1  0
  2  3  2  0
  3  4  1  0
  4  5  2  0
  5  6  1  0
  5  7  1  0
  7  8  1  0
  8  9  1  0
  9 10  1  0
 10 11  1  0
 11 12  1  0
 12 13  1  0
 13 14  1  0
  7 15  2  0
 15  2  1  0
 14  9  1  0
M  END
>  <inchikey>  (942) 
PLVKZAZSHMHQQG-UHFFFAOYSA-N

>  <tags>  (942) 
fragmenstein_placed,CpKRS_FrAncestor_bulkdock_iter2

>  <ref_pdb>  (942) 
x0485c

>  <energy_score>  (942) 
-25.03133

>  <distance_score>  (942) 
0.408016

>  <HIPPO Pose ID>  (942) 
57352

>  <ref_mols>  (942) 
x0675b

>  <smiles>  (942) 
Cc1ccc(C)c(CN2CCSCC2)c1

>  <HIPPO Compound ID>  (942) 
34752

>  <alias>  (942) 
PLVKZAZSHMHQQG-UHFFFAOYSA-N-P60

>  <subsites>  (942) 


>  <placement_batch>  (942) 
CpKRS_FrAncestor_bulkdock_iter2

>  <name>  (942) 
PLVKZAZSHMHQQG-UHFFFAOYSA-N-P60

$$$$
HWDWIHNTDVLHOP-UHFFFAOYSA-N-P60
     RDKit          3D

 15 16  0  0  0  0  0  0  0  0999 V2000
   -0.7461  -23.6745   23.1006 C   0  0  0  0  0  0  0  0  0  0  0  0
   -1.3253  -24.8048   23.8952 C   0  0  0  0  0  0  0  0  0  0  0  0
   -2.0056  -24.5769   25.0971 C   0  0  0  0  0  0  0  0  0  0  0  0
   -2.6658  -25.6224   25.7533 C   0  0  0  0  0  0  0  0  0  0  0  0
   -3.3883  -25.3716   27.0416 C   0  0  0  0  0  0  0  0  0  0  0  0
   -2.6278  -26.9068   25.1977 C   0  0  0  0  0  0  0  0  0  0  0  0
   -1.9406  -27.1535   23.9995 C   0  0  0  0  0  0  0  0  0  0  0  0
   -1.9500  -28.5227   23.3595 C   0  0  0  0  0  0  0  0  0  0  0  0
   -0.7429  -29.3227   23.6156 N   0  0  0  0  0  0  0  0  0  0  0  0
   -0.5776  -29.6948   25.0264 C   0  0  0  0  0  0  0  0  0  0  0  0
   -1.5077  -30.7984   25.5400 C   0  0  0  0  0  0  0  0  0  0  0  0
   -1.3334  -32.3742   24.6395 S   0  0  0  0  0  0  0  0  0  0  0  0
   -0.2322  -31.8144   23.2947 C   0  0  0  0  0  0  0  0  0  0  0  0
   -0.7072  -30.4834   22.7002 C   0  0  0  0  0  0  0  0  0  0  0  0
   -1.2735  -26.0984   23.3694 C   0  0  0  0  0  0  0  0  0  0  0  0
  1  2  1  0
  2  3  2  0
  3  4  1  0
  4  5  1  0
  4  6  2  0
  6  7  1  0
  7  8  1  0
  8  9  1  0
  9 10  1  0
 10 11  1  0
 11 12  1  0
 12 13  1  0
 13 14  1  0
  7 15  2  0
 15  2  1  0
 14  9  1  0
M  END
>  <inchikey>  (943) 
HWDWIHNTDVLHOP-UHFFFAOYSA-N

>  <tags>  (943) 
fragmenstein_placed,CpKRS_FrAncestor_bulkdock_iter2

>  <ref_pdb>  (943) 
x0485c

>  <energy_score>  (943) 
-37.235435

>  <distance_score>  (943) 
0.496362

>  <HIPPO Pose ID>  (943) 
57354

>  <ref_mols>  (943) 
x0675b

>  <smiles>  (943) 
Cc1cc(C)cc(CN2CCSCC2)c1

>  <HIPPO Compound ID>  (943) 
34753

>  <alias>  (943) 
HWDWIHNTDVLHOP-UHFFFAOYSA-N-P60

>  <subsites>  (943) 


>  <placement_batch>  (943) 
CpKRS_FrAncestor_bulkdock_iter2

>  <name>  (943) 
HWDWIHNTDVLHOP-UHFFFAOYSA-N-P60

$$$$
BAYQJOHSWUQHKZ-UHFFFAOYSA-N-P60
     RDKit          3D

 17 18  0  0  0  0  0  0  0  0999 V2000
   -3.2485  -25.4211   27.0993 C   0  0  0  0  0  0  0  0  0  0  0  0
   -2.5413  -25.7024   25.8082 C   0  0  0  0  0  0  0  0  0  0  0  0
   -1.9057  -24.6669   25.1120 C   0  0  0  0  0  0  0  0  0  0  0  0
   -1.2576  -24.9154   23.8965 C   0  0  0  0  0  0  0  0  0  0  0  0
   -0.7012  -23.7971   23.0670 C   0  0  0  0  0  0  0  0  0  0  0  0
   -1.2190  -26.2195   23.3945 C   0  0  0  0  0  0  0  0  0  0  0  0
   -1.8576  -27.2665   24.0692 C   0  0  0  0  0  0  0  0  0  0  0  0
   -1.9220  -28.6388   23.4383 C   0  0  0  0  0  0  0  0  0  0  0  0
   -0.6316  -29.3412   23.3667 N   0  0  0  0  0  0  0  0  0  0  0  0
   -0.7304  -30.5293   22.4878 C   0  0  0  0  0  0  0  0  0  0  0  0
   -0.8407  -31.9278   23.1264 C   0  0  0  0  0  0  0  0  0  0  0  0
   -1.7963  -31.9601   24.6718 S   0  0  0  0  0  0  0  0  0  0  0  0
   -0.9316  -30.6079   25.5615 C   0  0  0  0  0  0  0  0  0  0  0  0
   -0.0568  -29.6654   24.6965 C   0  0  1  0  0  0  0  0  0  0  0  0
    1.3265  -30.2197   24.5905 C   0  0  0  0  0  0  0  0  0  0  0  0
    2.3725  -30.7166   24.4915 N   0  0  0  0  0  0  0  0  0  0  0  0
   -2.5051  -27.0004   25.2844 C   0  0  0  0  0  0  0  0  0  0  0  0
  1  2  1  0
  2  3  2  0
  3  4  1  0
  4  5  1  0
  4  6  2  0
  6  7  1  0
  7  8  1  0
  8  9  1  0
  9 10  1  0
 10 11  1  0
 11 12  1  0
 12 13  1  0
 13 14  1  0
 14 15  1  6
 15 16  3  0
  7 17  2  0
 17  2  1  0
 14  9  1  0
M  END
>  <inchikey>  (944) 
BAYQJOHSWUQHKZ-UHFFFAOYSA-N

>  <tags>  (944) 
fragmenstein_placed,CpKRS_FrAncestor_bulkdock_iter2

>  <ref_pdb>  (944) 
x0485c

>  <energy_score>  (944) 
-26.703262

>  <distance_score>  (944) 
0.577398

>  <HIPPO Pose ID>  (944) 
57356

>  <ref_mols>  (944) 
x0675b

>  <smiles>  (944) 
Cc1cc(C)cc(CN2CCSCC2C#N)c1

>  <HIPPO Compound ID>  (944) 
34754

>  <alias>  (944) 
BAYQJOHSWUQHKZ-UHFFFAOYSA-N-P60

>  <subsites>  (944) 


>  <placement_batch>  (944) 
CpKRS_FrAncestor_bulkdock_iter2

>  <name>  (944) 
BAYQJOHSWUQHKZ-UHFFFAOYSA-N-P60

$$$$
HLSUONMVLZTZGJ-UHFFFAOYSA-N-P60
     RDKit          3D

 15 16  0  0  0  0  0  0  0  0999 V2000
   -3.5083  -25.4685   27.0392 C   0  0  0  0  0  0  0  0  0  0  0  0
   -2.6696  -25.6042   25.8058 C   0  0  0  0  0  0  0  0  0  0  0  0
   -1.9407  -24.5240   25.3322 C   0  0  0  0  0  0  0  0  0  0  0  0
   -1.1606  -24.6908   24.1944 C   0  0  0  0  0  0  0  0  0  0  0  0
   -1.1186  -25.9279   23.5649 C   0  0  0  0  0  0  0  0  0  0  0  0
   -1.8978  -26.9625   24.0743 C   0  0  0  0  0  0  0  0  0  0  0  0
   -1.9438  -28.3094   23.3398 C   0  0  2  0  0  0  0  0  0  0  0  0
   -3.3925  -28.8294   23.3008 C   0  0  0  0  0  0  0  0  0  0  0  0
   -0.9316  -29.2720   23.8334 N   0  0  0  0  0  0  0  0  0  0  0  0
   -0.6270  -30.3157   22.8388 C   0  0  0  0  0  0  0  0  0  0  0  0
    0.0526  -31.5688   23.4000 C   0  0  0  0  0  0  0  0  0  0  0  0
   -1.0533  -32.5054   24.5096 S   0  0  0  0  0  0  0  0  0  0  0  0
   -1.9065  -31.1113   25.3145 C   0  0  0  0  0  0  0  0  0  0  0  0
   -1.1540  -29.7832   25.1920 C   0  0  0  0  0  0  0  0  0  0  0  0
   -2.6549  -26.8116   25.1983 N   0  0  0  0  0  0  0  0  0  0  0  0
  1  2  1  0
  2  3  2  0
  3  4  1  0
  4  5  2  0
  5  6  1  0
  6  7  1  0
  7  8  1  1
  7  9  1  0
  9 10  1  0
 10 11  1  0
 11 12  1  0
 12 13  1  0
 13 14  1  0
  6 15  2  0
 15  2  1  0
 14  9  1  0
M  END
>  <inchikey>  (945) 
HLSUONMVLZTZGJ-UHFFFAOYSA-N

>  <tags>  (945) 
fragmenstein_placed,CpKRS_FrAncestor_bulkdock_iter2

>  <ref_pdb>  (945) 
x0485c

>  <energy_score>  (945) 
-28.208041

>  <distance_score>  (945) 
0.483831

>  <HIPPO Pose ID>  (945) 
57358

>  <ref_mols>  (945) 
x0675b

>  <smiles>  (945) 
Cc1cccc(C(C)N2CCSCC2)n1

>  <HIPPO Compound ID>  (945) 
34755

>  <alias>  (945) 
HLSUONMVLZTZGJ-UHFFFAOYSA-N-P60

>  <subsites>  (945) 


>  <placement_batch>  (945) 
CpKRS_FrAncestor_bulkdock_iter2

>  <name>  (945) 
HLSUONMVLZTZGJ-UHFFFAOYSA-N-P60

$$$$
ZAUGQLSYBHYNNC-UHFFFAOYSA-N-P29
     RDKit          3D

 19 20  0  0  0  0  0  0  0  0999 V2000
    2.2121    4.2245   47.6935 C   0  0  0  0  0  0  0  0  0  0  0  0
    2.8284    4.3991   46.3405 C   0  0  0  0  0  0  0  0  0  0  0  0
    3.5230    3.3067   45.8253 C   0  0  0  0  0  0  0  0  0  0  0  0
    3.9961    3.2993   44.5138 C   0  0  0  0  0  0  0  0  0  0  0  0
    4.7183    2.0728   44.0233 C   0  0  0  0  0  0  0  0  0  0  0  0
    3.8057    4.4361   43.6914 C   0  0  0  0  0  0  0  0  0  0  0  0
    4.3859    4.3998   42.2957 C   0  0  0  0  0  0  0  0  0  0  0  0
    3.1637    5.5828   44.2322 C   0  0  0  0  0  0  0  0  0  0  0  0
    3.0584    6.7886   43.5168 N   0  0  0  0  0  0  0  0  0  0  0  0
    2.8240    7.0458   42.0059 C   0  0  0  0  0  0  0  0  0  0  0  0
    2.7590    6.2964   41.1104 O   0  0  0  0  0  0  0  0  0  0  0  0
    2.7775    8.4786   41.6905 C   0  0  0  0  0  0  0  0  0  0  0  0
    3.7239    8.9951   40.8105 C   0  0  0  0  0  0  0  0  0  0  0  0
    3.5950   10.3151   40.4444 C   0  0  0  0  0  0  0  0  0  0  0  0
    2.5928   11.0913   40.9010 N   0  0  0  0  0  0  0  0  0  0  0  0
    1.6708   10.5740   41.7706 N   0  0  0  0  0  0  0  0  0  0  0  0
    1.7700    9.2892   42.1617 C   0  0  0  0  0  0  0  0  0  0  0  0
    2.6911    5.5693   45.5716 C   0  0  0  0  0  0  0  0  0  0  0  0
    2.0285    6.7605   46.2212 C   0  0  0  0  0  0  0  0  0  0  0  0
  1  2  1  0
  2  3  2  0
  3  4  1  0
  4  5  1  0
  4  6  2  0
  6  7  1  0
  6  8  1  0
  8  9  1  0
  9 10  1  0
 10 11  2  0
 10 12  1  0
 12 13  2  0
 13 14  1  0
 14 15  2  0
 15 16  1  0
 16 17  2  0
  8 18  2  0
 18 19  1  0
 18  2  1  0
 17 12  1  0
M  END
>  <inchikey>  (946) 
ZAUGQLSYBHYNNC-UHFFFAOYSA-N

>  <tags>  (946) 
fragmenstein_placed,CpKRS_FrAncestor_bulkdock_iter2

>  <ref_pdb>  (946) 
x0485c

>  <energy_score>  (946) 
-10.510284

>  <distance_score>  (946) 
0.69956

>  <HIPPO Pose ID>  (946) 
57361

>  <ref_mols>  (946) 
x0485c

>  <smiles>  (946) 
Cc1cc(C)c(C)c(NC(=O)c2ccnnc2)c1C

>  <HIPPO Compound ID>  (946) 
34756

>  <alias>  (946) 
ZAUGQLSYBHYNNC-UHFFFAOYSA-N-P29

>  <subsites>  (946) 


>  <placement_batch>  (946) 
CpKRS_FrAncestor_bulkdock_iter2

>  <name>  (946) 
ZAUGQLSYBHYNNC-UHFFFAOYSA-N-P29

$$$$
OZENCQZXVMMENL-UHFFFAOYSA-N-P29
     RDKit          3D

 18 19  0  0  0  0  0  0  0  0999 V2000
    4.6931    2.1897   43.9132 C   0  0  0  0  0  0  0  0  0  0  0  0
    3.9704    3.3546   44.5170 C   0  0  0  0  0  0  0  0  0  0  0  0
    3.5262    3.3267   45.8332 C   0  0  0  0  0  0  0  0  0  0  0  0
    2.8171    4.4062   46.3746 C   0  0  0  0  0  0  0  0  0  0  0  0
    2.2070    4.1995   47.7245 C   0  0  0  0  0  0  0  0  0  0  0  0
    2.6521    5.5953   45.6352 C   0  0  0  0  0  0  0  0  0  0  0  0
    1.9902    6.7731   46.3022 C   0  0  0  0  0  0  0  0  0  0  0  0
    3.1154    5.6275   44.3063 C   0  0  0  0  0  0  0  0  0  0  0  0
    2.9966    6.7839   43.5316 N   0  0  0  0  0  0  0  0  0  0  0  0
    3.2739    7.0189   42.0280 C   0  0  0  0  0  0  0  0  0  0  0  0
    3.5709    6.2654   41.1860 O   0  0  0  0  0  0  0  0  0  0  0  0
    3.1035    8.4342   41.6481 C   0  0  0  0  0  0  0  0  0  0  0  0
    4.0506    9.0317   40.8237 C   0  0  0  0  0  0  0  0  0  0  0  0
    3.8033   10.3188   40.4012 C   0  0  0  0  0  0  0  0  0  0  0  0
    2.6901   10.9933   40.7531 N   0  0  0  0  0  0  0  0  0  0  0  0
    1.7620   10.3995   41.5594 N   0  0  0  0  0  0  0  0  0  0  0  0
    1.9703    9.1426   41.9966 C   0  0  0  0  0  0  0  0  0  0  0  0
    3.7158    4.4924   43.7470 C   0  0  0  0  0  0  0  0  0  0  0  0
  1  2  1  0
  2  3  2  0
  3  4  1  0
  4  5  1  0
  4  6  2  0
  6  7  1  0
  6  8  1  0
  8  9  1  0
  9 10  1  0
 10 11  2  0
 10 12  1  0
 12 13  2  0
 13 14  1  0
 14 15  2  0
 15 16  1  0
 16 17  2  0
  8 18  2  0
 18  2  1  0
 17 12  1  0
M  END
>  <inchikey>  (947) 
OZENCQZXVMMENL-UHFFFAOYSA-N

>  <tags>  (947) 
fragmenstein_placed,CpKRS_FrAncestor_bulkdock_iter2

>  <ref_pdb>  (947) 
x0485c

>  <energy_score>  (947) 
-12.171563

>  <distance_score>  (947) 
0.556449

>  <HIPPO Pose ID>  (947) 
57364

>  <ref_mols>  (947) 
x0485c

>  <smiles>  (947) 
Cc1cc(C)c(C)c(NC(=O)c2ccnnc2)c1

>  <HIPPO Compound ID>  (947) 
34757

>  <alias>  (947) 
OZENCQZXVMMENL-UHFFFAOYSA-N-P29

>  <subsites>  (947) 


>  <placement_batch>  (947) 
CpKRS_FrAncestor_bulkdock_iter2

>  <name>  (947) 
OZENCQZXVMMENL-UHFFFAOYSA-N-P29

$$$$
KOPZXHUSCPSTBC-UHFFFAOYSA-N-P16
     RDKit          3D

 18 19  0  0  0  0  0  0  0  0999 V2000
   -0.0436  -13.4200   26.5900 C   0  0  0  0  0  0  0  0  0  0  0  0
    1.3629  -13.9254   26.6637 C   0  0  0  0  0  0  0  0  0  0  0  0
    1.7513  -14.7967   27.6856 C   0  0  0  0  0  0  0  0  0  0  0  0
    3.0498  -15.3172   27.7297 C   0  0  0  0  0  0  0  0  0  0  0  0
    3.4425  -16.2448   28.8374 C   0  0  0  0  0  0  0  0  0  0  0  0
    3.9672  -14.9602   26.7324 C   0  0  0  0  0  0  0  0  0  0  0  0
    3.6064  -14.0589   25.7228 C   0  0  0  0  0  0  0  0  0  0  0  0
    4.6676  -13.5687   24.7770 C   0  0  0  0  0  0  0  0  0  0  0  0
    5.7604  -13.5129   25.1725 O   0  0  0  0  0  0  0  0  0  0  0  0
    4.0711  -13.1213   23.4355 N   0  0  0  0  0  0  0  0  0  0  0  0
    4.7062  -12.5986   22.2623 C   0  0  0  0  0  0  0  0  0  0  0  0
    4.9451  -11.1506   22.4232 C   0  0  0  0  0  0  0  0  0  0  0  0
    5.3183  -10.3423   23.4688 C   0  0  0  0  0  0  0  0  0  0  0  0
    5.3642   -9.0609   22.9100 C   0  0  0  0  0  0  0  0  0  0  0  0
    5.7358   -7.6327   23.7294 Cl  0  0  0  0  0  0  0  0  0  0  0  0
    5.0293   -9.0557   21.6196 N   0  0  0  0  0  0  0  0  0  0  0  0
    4.7950  -10.3865   21.3048 O   0  0  0  0  0  0  0  0  0  0  0  0
    2.3041  -13.5386   25.7036 C   0  0  0  0  0  0  0  0  0  0  0  0
  1  2  1  0
  2  3  2  0
  3  4  1  0
  4  5  1  0
  4  6  2  0
  6  7  1  0
  7  8  1  0
  8  9  2  0
  8 10  1  0
 10 11  1  0
 11 12  1  0
 12 13  2  0
 13 14  1  0
 14 15  1  0
 14 16  2  0
 16 17  1  0
  7 18  2  0
 18  2  1  0
 17 12  1  0
M  END
>  <inchikey>  (948) 
KOPZXHUSCPSTBC-UHFFFAOYSA-N

>  <tags>  (948) 
fragmenstein_placed,CpKRS_FrAncestor_bulkdock_iter2

>  <ref_pdb>  (948) 
x0485c

>  <energy_score>  (948) 
-3.903661

>  <distance_score>  (948) 
0.461349

>  <HIPPO Pose ID>  (948) 
57375

>  <ref_mols>  (948) 
x0426a

>  <smiles>  (948) 
Cc1cc(C)cc(C(=O)NCc2cc(Cl)no2)c1

>  <HIPPO Compound ID>  (948) 
34761

>  <alias>  (948) 
KOPZXHUSCPSTBC-UHFFFAOYSA-N-P16

>  <subsites>  (948) 


>  <placement_batch>  (948) 
CpKRS_FrAncestor_bulkdock_iter2

>  <name>  (948) 
KOPZXHUSCPSTBC-UHFFFAOYSA-N-P16

$$$$
SDVDNCFFTQDFOT-UHFFFAOYSA-N-P16
     RDKit          3D

 18 19  0  0  0  0  0  0  0  0999 V2000
   -0.0354  -13.3967   26.6039 C   0  0  0  0  0  0  0  0  0  0  0  0
    1.3674  -13.9120   26.6788 C   0  0  0  0  0  0  0  0  0  0  0  0
    1.7462  -14.7940   27.6947 C   0  0  0  0  0  0  0  0  0  0  0  0
    3.0399  -15.3248   27.7365 C   0  0  0  0  0  0  0  0  0  0  0  0
    3.4275  -16.2592   28.8397 C   0  0  0  0  0  0  0  0  0  0  0  0
    3.9594  -14.9713   26.7399 C   0  0  0  0  0  0  0  0  0  0  0  0
    3.6109  -14.0572   25.7362 C   0  0  0  0  0  0  0  0  0  0  0  0
    4.6861  -13.5789   24.7960 C   0  0  0  0  0  0  0  0  0  0  0  0
    5.7853  -13.6078   25.1782 O   0  0  0  0  0  0  0  0  0  0  0  0
    4.1013  -13.0274   23.4867 N   0  0  0  0  0  0  0  0  0  0  0  0
    4.7526  -12.4821   22.3334 C   0  0  0  0  0  0  0  0  0  0  0  0
    4.9798  -11.0220   22.5190 C   0  0  0  0  0  0  0  0  0  0  0  0
    5.2677  -10.2619   23.6351 C   0  0  0  0  0  0  0  0  0  0  0  0
    5.4375   -8.8807   23.2958 C   0  0  0  0  0  0  0  0  0  0  0  0
    5.8169   -7.7936   24.2321 C   0  0  0  0  0  0  0  0  0  0  0  0
    5.2369   -8.5759   22.0154 N   0  0  0  0  0  0  0  0  0  0  0  0
    5.0006   -9.9726   21.1818 S   0  0  0  0  0  0  0  0  0  0  0  0
    2.3136  -13.5243   25.7234 C   0  0  0  0  0  0  0  0  0  0  0  0
  1  2  1  0
  2  3  2  0
  3  4  1  0
  4  5  1  0
  4  6  2  0
  6  7  1  0
  7  8  1  0
  8  9  2  0
  8 10  1  0
 10 11  1  0
 11 12  1  0
 12 13  2  0
 13 14  1  0
 14 15  1  0
 14 16  2  0
 16 17  1  0
  7 18  2  0
 18  2  1  0
 17 12  1  0
M  END
>  <inchikey>  (949) 
SDVDNCFFTQDFOT-UHFFFAOYSA-N

>  <tags>  (949) 
fragmenstein_placed,CpKRS_FrAncestor_bulkdock_iter2

>  <ref_pdb>  (949) 
x0485c

>  <energy_score>  (949) 
-5.366386

>  <distance_score>  (949) 
0.573736

>  <HIPPO Pose ID>  (949) 
57379

>  <ref_mols>  (949) 
x0426a

>  <smiles>  (949) 
Cc1cc(C)cc(C(=O)NCc2cc(C)ns2)c1

>  <HIPPO Compound ID>  (949) 
34763

>  <alias>  (949) 
SDVDNCFFTQDFOT-UHFFFAOYSA-N-P16

>  <subsites>  (949) 


>  <placement_batch>  (949) 
CpKRS_FrAncestor_bulkdock_iter2

>  <name>  (949) 
SDVDNCFFTQDFOT-UHFFFAOYSA-N-P16

$$$$
YLJQEXXEUAJJJE-UHFFFAOYSA-N-P16
     RDKit          3D

 17 18  0  0  0  0  0  0  0  0999 V2000
    0.1700  -13.3673   26.7499 C   0  0  0  0  0  0  0  0  0  0  0  0
    1.5557  -13.9256   26.6988 C   0  0  0  0  0  0  0  0  0  0  0  0
    1.9428  -14.9300   27.5876 C   0  0  0  0  0  0  0  0  0  0  0  0
    3.1940  -15.5324   27.4699 C   0  0  0  0  0  0  0  0  0  0  0  0
    4.1033  -15.1124   26.4857 C   0  0  0  0  0  0  0  0  0  0  0  0
    5.4207  -15.8200   26.4009 C   0  0  0  0  0  0  0  0  0  0  0  0
    3.7500  -14.0464   25.6402 C   0  0  0  0  0  0  0  0  0  0  0  0
    4.7546  -13.4251   24.7139 C   0  0  0  0  0  0  0  0  0  0  0  0
    5.8291  -13.2433   25.1190 O   0  0  0  0  0  0  0  0  0  0  0  0
    4.1204  -13.0400   23.3737 N   0  0  0  0  0  0  0  0  0  0  0  0
    4.6968  -12.4344   22.2116 C   0  0  0  0  0  0  0  0  0  0  0  0
    4.8925  -10.9802   22.4085 C   0  0  0  0  0  0  0  0  0  0  0  0
    4.9532   -9.9842   21.4107 C   0  0  0  0  0  0  0  0  0  0  0  0
    5.1202   -8.7584   21.9088 N   0  0  0  0  0  0  0  0  0  0  0  0
    5.2323   -8.9414   23.2756 O   0  0  0  0  0  0  0  0  0  0  0  0
    5.1048  -10.2592   23.5591 C   0  0  0  0  0  0  0  0  0  0  0  0
    2.4732  -13.4692   25.7464 C   0  0  0  0  0  0  0  0  0  0  0  0
  1  2  1  0
  2  3  2  0
  3  4  1  0
  4  5  2  0
  5  6  1  0
  5  7  1  0
  7  8  1  0
  8  9  2  0
  8 10  1  0
 10 11  1  0
 11 12  1  0
 12 13  1  0
 13 14  2  0
 14 15  1  0
 15 16  1  0
  7 17  2  0
 17  2  1  0
 16 12  2  0
M  END
>  <inchikey>  (950) 
YLJQEXXEUAJJJE-UHFFFAOYSA-N

>  <tags>  (950) 
fragmenstein_placed,CpKRS_FrAncestor_bulkdock_iter2

>  <ref_pdb>  (950) 
x0485c

>  <energy_score>  (950) 
-0.421535

>  <distance_score>  (950) 
0.587529

>  <HIPPO Pose ID>  (950) 
57389

>  <ref_mols>  (950) 
x0426a

>  <smiles>  (950) 
Cc1ccc(C)c(C(=O)NCc2cnoc2)c1

>  <HIPPO Compound ID>  (950) 
34768

>  <alias>  (950) 
YLJQEXXEUAJJJE-UHFFFAOYSA-N-P16

>  <subsites>  (950) 


>  <placement_batch>  (950) 
CpKRS_FrAncestor_bulkdock_iter2

>  <name>  (950) 
YLJQEXXEUAJJJE-UHFFFAOYSA-N-P16

$$$$
GDDRNJLNAMDBKS-UHFFFAOYSA-N-P16
     RDKit          3D

 17 18  0  0  0  0  0  0  0  0999 V2000
   -0.0454  -13.2105   26.4632 C   0  0  0  0  0  0  0  0  0  0  0  0
    1.3354  -13.7770   26.5771 C   0  0  0  0  0  0  0  0  0  0  0  0
    1.6393  -14.7152   27.5603 C   0  0  0  0  0  0  0  0  0  0  0  0
    2.8981  -15.3099   27.5951 C   0  0  0  0  0  0  0  0  0  0  0  0
    3.8976  -14.9543   26.6688 C   0  0  0  0  0  0  0  0  0  0  0  0
    5.2238  -15.6417   26.7874 C   0  0  0  0  0  0  0  0  0  0  0  0
    3.6097  -13.9948   25.6790 C   0  0  0  0  0  0  0  0  0  0  0  0
    4.6752  -13.4660   24.7403 C   0  0  0  0  0  0  0  0  0  0  0  0
    5.7654  -13.3960   25.1393 O   0  0  0  0  0  0  0  0  0  0  0  0
    4.0737  -13.0081   23.4042 N   0  0  0  0  0  0  0  0  0  0  0  0
    4.7016  -12.4546   22.2419 C   0  0  0  0  0  0  0  0  0  0  0  0
    4.9369  -10.9905   22.4339 C   0  0  0  0  0  0  0  0  0  0  0  0
    4.9728  -10.0276   21.3775 C   0  0  0  0  0  0  0  0  0  0  0  0
    5.1644   -8.7515   21.6960 N   0  0  0  0  0  0  0  0  0  0  0  0
    5.4173   -8.6641   23.3281 S   0  0  0  0  0  0  0  0  0  0  0  0
    5.1981  -10.3292   23.6209 C   0  0  0  0  0  0  0  0  0  0  0  0
    2.3290  -13.4069   25.6615 C   0  0  0  0  0  0  0  0  0  0  0  0
  1  2  1  0
  2  3  2  0
  3  4  1  0
  4  5  2  0
  5  6  1  0
  5  7  1  0
  7  8  1  0
  8  9  2  0
  8 10  1  0
 10 11  1  0
 11 12  1  0
 12 13  1  0
 13 14  2  0
 14 15  1  0
 15 16  1  0
  7 17  2  0
 17  2  1  0
 16 12  2  0
M  END
>  <inchikey>  (951) 
GDDRNJLNAMDBKS-UHFFFAOYSA-N

>  <tags>  (951) 
fragmenstein_placed,CpKRS_FrAncestor_bulkdock_iter2

>  <ref_pdb>  (951) 
x0485c

>  <energy_score>  (951) 
-11.541337

>  <distance_score>  (951) 
0.592515

>  <HIPPO Pose ID>  (951) 
57393

>  <ref_mols>  (951) 
x0426a

>  <smiles>  (951) 
Cc1ccc(C)c(C(=O)NCc2cnsc2)c1

>  <HIPPO Compound ID>  (951) 
34770

>  <alias>  (951) 
GDDRNJLNAMDBKS-UHFFFAOYSA-N-P16

>  <subsites>  (951) 


>  <placement_batch>  (951) 
CpKRS_FrAncestor_bulkdock_iter2

>  <name>  (951) 
GDDRNJLNAMDBKS-UHFFFAOYSA-N-P16

$$$$
JLICRGYCZJASET-UHFFFAOYSA-N-P16
     RDKit          3D

 17 18  0  0  0  0  0  0  0  0999 V2000
    3.3890  -16.2385   28.7981 C   0  0  0  0  0  0  0  0  0  0  0  0
    3.0224  -15.2954   27.6950 C   0  0  0  0  0  0  0  0  0  0  0  0
    1.7365  -14.7463   27.6430 C   0  0  0  0  0  0  0  0  0  0  0  0
    1.3769  -13.8605   26.6222 C   0  0  0  0  0  0  0  0  0  0  0  0
   -0.0208  -13.3312   26.5327 C   0  0  0  0  0  0  0  0  0  0  0  0
    2.3305  -13.4974   25.6633 C   0  0  0  0  0  0  0  0  0  0  0  0
    3.6188  -14.0488   25.6883 C   0  0  0  0  0  0  0  0  0  0  0  0
    4.6991  -13.6088   24.7380 C   0  0  0  0  0  0  0  0  0  0  0  0
    5.7965  -13.6227   25.1289 O   0  0  0  0  0  0  0  0  0  0  0  0
    4.1272  -13.1410   23.3887 N   0  0  0  0  0  0  0  0  0  0  0  0
    4.7690  -12.5061   22.2748 C   0  0  0  0  0  0  0  0  0  0  0  0
    4.9362  -11.0412   22.4993 C   0  0  0  0  0  0  0  0  0  0  0  0
    4.9652  -10.0608   21.4571 C   0  0  0  0  0  0  0  0  0  0  0  0
    5.1080   -8.7845   21.8009 N   0  0  0  0  0  0  0  0  0  0  0  0
    5.3272   -8.7192   23.4395 S   0  0  0  0  0  0  0  0  0  0  0  0
    5.1447  -10.3939   23.7018 C   0  0  0  0  0  0  0  0  0  0  0  0
    3.9515  -14.9584   26.7019 C   0  0  0  0  0  0  0  0  0  0  0  0
  1  2  1  0
  2  3  2  0
  3  4  1  0
  4  5  1  0
  4  6  2  0
  6  7  1  0
  7  8  1  0
  8  9  2  0
  8 10  1  0
 10 11  1  0
 11 12  1  0
 12 13  1  0
 13 14  2  0
 14 15  1  0
 15 16  1  0
  7 17  2  0
 17  2  1  0
 16 12  2  0
M  END
>  <inchikey>  (952) 
JLICRGYCZJASET-UHFFFAOYSA-N

>  <tags>  (952) 
fragmenstein_placed,CpKRS_FrAncestor_bulkdock_iter2

>  <ref_pdb>  (952) 
x0485c

>  <energy_score>  (952) 
-3.711075

>  <distance_score>  (952) 
0.552872

>  <HIPPO Pose ID>  (952) 
57395

>  <ref_mols>  (952) 
x0426a

>  <smiles>  (952) 
Cc1cc(C)cc(C(=O)NCc2cnsc2)c1

>  <HIPPO Compound ID>  (952) 
34771

>  <alias>  (952) 
JLICRGYCZJASET-UHFFFAOYSA-N-P16

>  <subsites>  (952) 


>  <placement_batch>  (952) 
CpKRS_FrAncestor_bulkdock_iter2

>  <name>  (952) 
JLICRGYCZJASET-UHFFFAOYSA-N-P16

$$$$
NABAFQCOAXJFCQ-UHFFFAOYSA-N-P15
     RDKit          3D

 19 20  0  0  0  0  0  0  0  0999 V2000
   -0.4430  -21.8731   12.3722 C   0  0  0  0  0  0  0  0  0  0  0  0
    0.5782  -22.9098   12.0507 C   0  0  0  0  0  0  0  0  0  0  0  0
    0.8215  -23.2709   10.7212 C   0  0  0  0  0  0  0  0  0  0  0  0
    1.6615  -24.3489   10.4279 C   0  0  0  0  0  0  0  0  0  0  0  0
    1.7733  -24.8832    9.0286 C   0  0  0  0  0  0  0  0  0  0  0  0
    2.2783  -25.0400   11.4805 C   0  0  0  0  0  0  0  0  0  0  0  0
    2.0312  -24.6898   12.8145 C   0  0  0  0  0  0  0  0  0  0  0  0
    2.5743  -25.5707   13.9032 C   0  0  0  0  0  0  0  0  0  0  0  0
    3.5880  -26.1156   13.7205 O   0  0  0  0  0  0  0  0  0  0  0  0
    1.5872  -25.6675   15.0814 N   0  0  0  0  0  0  0  0  0  0  0  0
    1.5923  -26.5245   16.2369 C   0  0  2  0  0  0  0  0  0  0  0  0
    0.1518  -26.8374   16.6418 C   0  0  0  0  0  0  0  0  0  0  0  0
    2.4005  -25.9329   17.3488 C   0  0  0  0  0  0  0  0  0  0  0  0
    3.3987  -24.9237   17.3282 C   0  0  0  0  0  0  0  0  0  0  0  0
    3.9773  -24.7380   18.5227 N   0  0  0  0  0  0  0  0  0  0  0  0
    3.2938  -25.5647   19.3319 N   0  0  0  0  0  0  0  0  0  0  0  0
    3.5785  -25.5966   20.7451 C   0  0  0  0  0  0  0  0  0  0  0  0
    2.3881  -26.3350   18.6725 C   0  0  0  0  0  0  0  0  0  0  0  0
    1.2081  -23.5987   13.0887 C   0  0  0  0  0  0  0  0  0  0  0  0
  1  2  1  0
  2  3  2  0
  3  4  1  0
  4  5  1  0
  4  6  2  0
  6  7  1  0
  7  8  1  0
  8  9  2  0
  8 10  1  0
 10 11  1  0
 11 12  1  1
 11 13  1  0
 13 14  1  0
 14 15  2  0
 15 16  1  0
 16 17  1  0
 16 18  1  0
  7 19  2  0
 19  2  1  0
 18 13  2  0
M  END
>  <inchikey>  (953) 
NABAFQCOAXJFCQ-UHFFFAOYSA-N

>  <tags>  (953) 
fragmenstein_placed,CpKRS_FrAncestor_bulkdock_iter2

>  <ref_pdb>  (953) 
x0485c

>  <energy_score>  (953) 
-1.088154

>  <distance_score>  (953) 
0.973056

>  <HIPPO Pose ID>  (953) 
57398

>  <ref_mols>  (953) 
x0426b

>  <smiles>  (953) 
Cc1cc(C)cc(C(=O)NC(C)c2cnn(C)c2)c1

>  <HIPPO Compound ID>  (953) 
34772

>  <alias>  (953) 
NABAFQCOAXJFCQ-UHFFFAOYSA-N-P15

>  <subsites>  (953) 


>  <placement_batch>  (953) 
CpKRS_FrAncestor_bulkdock_iter2

>  <name>  (953) 
NABAFQCOAXJFCQ-UHFFFAOYSA-N-P15

$$$$
LACGKHKEUCPDNQ-UHFFFAOYSA-N-P16
     RDKit          3D

 18 19  0  0  0  0  0  0  0  0999 V2000
    3.3845  -16.1945   29.1409 C   0  0  0  0  0  0  0  0  0  0  0  0
    3.0072  -15.2620   28.0344 C   0  0  0  0  0  0  0  0  0  0  0  0
    1.6936  -14.7897   27.9274 C   0  0  0  0  0  0  0  0  0  0  0  0
    1.3029  -14.0130   26.8324 C   0  0  0  0  0  0  0  0  0  0  0  0
   -0.1290  -13.6222   26.6385 C   0  0  0  0  0  0  0  0  0  0  0  0
    2.2648  -13.6324   25.8919 C   0  0  0  0  0  0  0  0  0  0  0  0
    3.6053  -14.0171   26.0363 C   0  0  0  0  0  0  0  0  0  0  0  0
    4.6288  -13.6997   24.9905 C   0  0  0  0  0  0  0  0  0  0  0  0
    5.4963  -14.4643   24.8456 O   0  0  0  0  0  0  0  0  0  0  0  0
    4.2812  -12.4229   24.2018 N   0  0  0  0  0  0  0  0  0  0  0  0
    4.8681  -11.8728   23.0165 C   0  0  1  0  0  0  0  0  0  0  0  0
    4.0119  -12.4048   21.8956 C   0  0  0  0  0  0  0  0  0  0  0  0
    4.9647  -10.3934   22.9876 C   0  0  0  0  0  0  0  0  0  0  0  0
    4.8802   -9.5611   21.8393 C   0  0  0  0  0  0  0  0  0  0  0  0
    5.0284   -8.2666   22.1192 N   0  0  0  0  0  0  0  0  0  0  0  0
    5.3539   -8.2672   23.4176 N   0  0  0  0  0  0  0  0  0  0  0  0
    5.2816   -9.5031   23.9872 C   0  0  0  0  0  0  0  0  0  0  0  0
    3.9524  -14.8861   27.0743 C   0  0  0  0  0  0  0  0  0  0  0  0
  1  2  1  0
  2  3  2  0
  3  4  1  0
  4  5  1  0
  4  6  2  0
  6  7  1  0
  7  8  1  0
  8  9  2  0
  8 10  1  0
 10 11  1  0
 11 12  1  6
 11 13  1  0
 13 14  1  0
 14 15  2  0
 15 16  1  0
 16 17  1  0
  7 18  2  0
 18  2  1  0
 17 13  2  0
M  END
>  <inchikey>  (954) 
LACGKHKEUCPDNQ-UHFFFAOYSA-N

>  <tags>  (954) 
fragmenstein_placed,CpKRS_FrAncestor_bulkdock_iter2

>  <ref_pdb>  (954) 
x0485c

>  <energy_score>  (954) 
-6.19885

>  <distance_score>  (954) 
0.800032

>  <HIPPO Pose ID>  (954) 
57399

>  <ref_mols>  (954) 
x0426a

>  <smiles>  (954) 
Cc1cc(C)cc(C(=O)NC(C)c2cn[nH]c2)c1

>  <HIPPO Compound ID>  (954) 
34773

>  <alias>  (954) 
LACGKHKEUCPDNQ-UHFFFAOYSA-N-P16

>  <subsites>  (954) 


>  <placement_batch>  (954) 
CpKRS_FrAncestor_bulkdock_iter2

>  <name>  (954) 
LACGKHKEUCPDNQ-UHFFFAOYSA-N-P16

$$$$
JFKGYEXYKSYVQN-UHFFFAOYSA-N-P20
     RDKit          3D

 16 17  0  0  0  0  0  0  0  0999 V2000
    4.6018    9.5672   40.7327 C   0  0  0  0  0  0  0  0  0  0  0  0
    4.6283    8.0920   40.9895 C   0  0  0  0  0  0  0  0  0  0  0  0
    5.5399    7.2895   40.2968 C   0  0  0  0  0  0  0  0  0  0  0  0
    5.5759    5.9080   40.5042 C   0  0  0  0  0  0  0  0  0  0  0  0
    6.5409    5.0470   39.7684 C   0  0  0  0  0  0  0  0  0  0  0  0
    4.7116    5.3258   41.4290 C   0  0  0  0  0  0  0  0  0  0  0  0
    3.7918    6.1158   42.1246 C   0  0  0  0  0  0  0  0  0  0  0  0
    2.8769    5.4150   43.0690 C   0  0  0  0  0  0  0  0  0  0  0  0
    2.5045    4.3526   42.7761 O   0  0  0  0  0  0  0  0  0  0  0  0
    2.5871    6.2614   44.3135 N   0  0  0  0  0  0  0  0  0  0  0  0
    1.8568    5.9462   45.5026 C   0  0  2  0  0  0  0  0  0  0  0  0
    1.2876    7.1915   46.1395 C   0  0  0  0  0  0  0  0  0  0  0  0
    2.7873    5.2270   46.4295 C   0  0  0  0  0  0  0  0  0  0  0  0
    3.1871    3.8002   46.1543 C   0  0  0  0  0  0  0  0  0  0  0  0
    2.2757    4.1153   47.3063 C   0  0  0  0  0  0  0  0  0  0  0  0
    3.7313    7.4940   41.8835 C   0  0  0  0  0  0  0  0  0  0  0  0
  1  2  1  0
  2  3  2  0
  3  4  1  0
  4  5  1  0
  4  6  2  0
  6  7  1  0
  7  8  1  0
  8  9  2  0
  8 10  1  0
 10 11  1  0
 11 12  1  1
 11 13  1  0
 13 14  1  0
 14 15  1  0
  7 16  2  0
 16  2  1  0
 15 13  1  0
M  END
>  <inchikey>  (955) 
JFKGYEXYKSYVQN-UHFFFAOYSA-N

>  <tags>  (955) 
fragmenstein_placed,CpKRS_FrAncestor_bulkdock_iter2

>  <ref_pdb>  (955) 
x0485c

>  <energy_score>  (955) 
-2.862861

>  <distance_score>  (955) 
0.547868

>  <HIPPO Pose ID>  (955) 
57401

>  <ref_mols>  (955) 
x0456a

>  <smiles>  (955) 
Cc1cc(C)cc(C(=O)NC(C)C2CC2)c1

>  <HIPPO Compound ID>  (955) 
34774

>  <alias>  (955) 
JFKGYEXYKSYVQN-UHFFFAOYSA-N-P20

>  <subsites>  (955) 


>  <placement_batch>  (955) 
CpKRS_FrAncestor_bulkdock_iter2

>  <name>  (955) 
JFKGYEXYKSYVQN-UHFFFAOYSA-N-P20

$$$$
MMFMVQZVONOBRP-UHFFFAOYSA-N-P38
     RDKit          3D

 16 16  0  0  0  0  0  0  0  0999 V2000
    3.3488  -15.9230   28.3674 C   0  0  0  0  0  0  0  0  0  0  0  0
    2.8379  -14.8893   27.4130 C   0  0  0  0  0  0  0  0  0  0  0  0
    1.5123  -14.4950   27.4380 C   0  0  0  0  0  0  0  0  0  0  0  0
    1.0660  -13.5939   26.4772 C   0  0  0  0  0  0  0  0  0  0  0  0
    1.9451  -13.0970   25.5018 C   0  0  0  0  0  0  0  0  0  0  0  0
    1.3633  -12.2161   24.4401 C   0  0  0  0  0  0  0  0  0  0  0  0
    3.2878  -13.4887   25.5951 C   0  0  0  0  0  0  0  0  0  0  0  0
    4.4171  -13.0331   24.6705 C   0  0  0  0  0  0  0  0  0  0  0  0
    5.2236  -13.8280   24.4122 O   0  0  0  0  0  0  0  0  0  0  0  0
    4.2628  -11.5828   24.1947 N   0  0  0  0  0  0  0  0  0  0  0  0
    5.0141  -10.8339   23.2275 C   0  0  0  0  0  0  0  0  0  0  0  0
    4.6690   -9.3488   23.0955 C   0  0  0  0  0  0  0  0  0  0  0  0
    3.1508   -9.1360   23.0927 C   0  0  0  0  0  0  0  0  0  0  0  0
    5.2693   -8.8526   21.7686 C   0  0  0  0  0  0  0  0  0  0  0  0
    5.3002   -8.5552   24.2477 C   0  0  0  0  0  0  0  0  0  0  0  0
    3.7182  -14.3792   26.5326 N   0  0  0  0  0  0  0  0  0  0  0  0
  1  2  1  0
  2  3  2  0
  3  4  1  0
  4  5  2  0
  5  6  1  0
  5  7  1  0
  7  8  1  0
  8  9  2  0
  8 10  1  0
 10 11  1  0
 11 12  1  0
 12 13  1  0
 12 14  1  0
 12 15  1  0
  7 16  2  0
 16  2  1  0
M  END
>  <inchikey>  (956) 
MMFMVQZVONOBRP-UHFFFAOYSA-N

>  <tags>  (956) 
fragmenstein_placed,CpKRS_FrAncestor_bulkdock_iter2

>  <ref_pdb>  (956) 
x0485c

>  <energy_score>  (956) 
-8.40678

>  <distance_score>  (956) 
0.398461

>  <HIPPO Pose ID>  (956) 
57404

>  <ref_mols>  (956) 
x0555a

>  <smiles>  (956) 
Cc1ccc(C)c(C(=O)NCC(C)(C)C)n1

>  <HIPPO Compound ID>  (956) 
34776

>  <alias>  (956) 
MMFMVQZVONOBRP-UHFFFAOYSA-N-P38

>  <subsites>  (956) 


>  <placement_batch>  (956) 
CpKRS_FrAncestor_bulkdock_iter2

>  <name>  (956) 
MMFMVQZVONOBRP-UHFFFAOYSA-N-P38

$$$$
HTTNKQRUOBCXND-UHFFFAOYSA-N-P20
     RDKit          3D

 16 17  0  0  0  0  0  0  0  0999 V2000
    4.6645    9.6304   40.7556 C   0  0  0  0  0  0  0  0  0  0  0  0
    4.8145    8.1464   40.8753 C   0  0  0  0  0  0  0  0  0  0  0  0
    5.6863    7.4744   40.0311 C   0  0  0  0  0  0  0  0  0  0  0  0
    5.8551    6.1094   40.2014 C   0  0  0  0  0  0  0  0  0  0  0  0
    5.1267    5.4320   41.1870 C   0  0  0  0  0  0  0  0  0  0  0  0
    5.5110    4.0225   41.4802 C   0  0  0  0  0  0  0  0  0  0  0  0
    4.2170    6.1717   41.9488 C   0  0  0  0  0  0  0  0  0  0  0  0
    3.3122    5.5280   42.9549 C   0  0  0  0  0  0  0  0  0  0  0  0
    2.7118    4.4785   42.7694 O   0  0  0  0  0  0  0  0  0  0  0  0
    3.2375    6.2852   44.0893 O   0  0  0  0  0  0  0  0  0  0  0  0
    2.0489    6.0510   44.8641 C   0  0  2  0  0  0  0  0  0  0  0  0
    1.6635    7.3044   45.6371 C   0  0  0  0  0  0  0  0  0  0  0  0
    2.1262    4.8635   45.7803 C   0  0  0  0  0  0  0  0  0  0  0  0
    3.0392    4.8874   46.9582 C   0  0  0  0  0  0  0  0  0  0  0  0
    3.2945    3.9064   45.8612 C   0  0  0  0  0  0  0  0  0  0  0  0
    4.0880    7.5230   41.8323 N   0  0  0  0  0  0  0  0  0  0  0  0
  1  2  1  0
  2  3  2  0
  3  4  1  0
  4  5  2  0
  5  6  1  0
  5  7  1  0
  7  8  1  0
  8  9  2  0
  8 10  1  0
 10 11  1  0
 11 12  1  1
 11 13  1  0
 13 14  1  0
 14 15  1  0
  7 16  2  0
 16  2  1  0
 15 13  1  0
M  END
>  <inchikey>  (957) 
HTTNKQRUOBCXND-UHFFFAOYSA-N

>  <tags>  (957) 
fragmenstein_placed,CpKRS_FrAncestor_bulkdock_iter2

>  <ref_pdb>  (957) 
x0485c

>  <energy_score>  (957) 
-16.774618

>  <distance_score>  (957) 
0.600777

>  <HIPPO Pose ID>  (957) 
57410

>  <ref_mols>  (957) 
x0456a

>  <smiles>  (957) 
Cc1ccc(C)c(C(=O)OC(C)C2CC2)n1

>  <HIPPO Compound ID>  (957) 
34778

>  <alias>  (957) 
HTTNKQRUOBCXND-UHFFFAOYSA-N-P20

>  <subsites>  (957) 


>  <placement_batch>  (957) 
CpKRS_FrAncestor_bulkdock_iter2

>  <name>  (957) 
HTTNKQRUOBCXND-UHFFFAOYSA-N-P20

$$$$
IOAKPZMEYPWBGN-QMMMGPOBSA-N-P12
     RDKit          3D

 16 17  0  0  0  0  0  0  0  0999 V2000
    3.6423   -8.8468   24.3113 C   0  0  0  0  0  0  0  0  0  0  0  0
    5.0418   -9.2860   23.8760 C   0  0  0  0  0  0  0  0  0  0  0  0
    6.0371   -8.7960   24.9275 C   0  0  0  0  0  0  0  0  0  0  0  0
    5.4398   -8.6814   22.5215 C   0  0  0  0  0  0  0  0  0  0  0  0
    4.7263   -9.5524   21.5139 C   0  0  0  0  0  0  0  0  0  0  0  0
    4.7829  -10.9597   22.0868 C   0  0  0  0  0  0  0  0  0  0  0  0
    5.1158  -10.8025   23.5765 C   0  0  2  0  0  0  0  0  0  0  0  0
    4.2694  -11.6569   24.3610 N   0  0  0  0  0  0  0  0  0  0  0  0
    4.5032  -13.0897   24.8890 C   0  0  0  0  0  0  0  0  0  0  0  0
    5.4482  -13.7694   24.8347 O   0  0  0  0  0  0  0  0  0  0  0  0
    3.2789  -13.5548   25.5269 C   0  0  0  0  0  0  0  0  0  0  0  0
    1.9622  -13.1607   25.4294 C   0  0  0  0  0  0  0  0  0  0  0  0
    1.2920  -13.9736   26.3443 C   0  0  0  0  0  0  0  0  0  0  0  0
   -0.5530  -13.8283   26.6244 Br  0  0  0  0  0  0  0  0  0  0  0  0
    2.0955  -14.8426   26.9521 N   0  0  0  0  0  0  0  0  0  0  0  0
    3.3589  -14.5874   26.4218 O   0  0  0  0  0  0  0  0  0  0  0  0
  1  2  1  0
  2  3  1  0
  2  4  1  0
  4  5  1  0
  5  6  1  0
  6  7  1  0
  7  8  1  1
  8  9  1  0
  9 10  2  0
  9 11  1  0
 11 12  2  0
 12 13  1  0
 13 14  1  0
 13 15  2  0
 15 16  1  0
  7  2  1  0
 16 11  1  0
M  END
>  <inchikey>  (958) 
IOAKPZMEYPWBGN-UHFFFAOYSA-N

>  <tags>  (958) 
fragmenstein_placed,CpKRS_FrAncestor_bulkdock_iter2

>  <ref_pdb>  (958) 
x0485c

>  <energy_score>  (958) 
-6.993904

>  <distance_score>  (958) 
0.317243

>  <HIPPO Pose ID>  (958) 
57422

>  <ref_mols>  (958) 
x0421b

>  <smiles>  (958) 
CC1(C)CCC[C@@H]1NC(=O)c1cc(Br)no1

>  <HIPPO Compound ID>  (958) 
34721

>  <alias>  (958) 
IOAKPZMEYPWBGN-QMMMGPOBSA-N-P12

>  <subsites>  (958) 


>  <placement_batch>  (958) 
CpKRS_FrAncestor_bulkdock_iter2

>  <name>  (958) 
IOAKPZMEYPWBGN-QMMMGPOBSA-N-P12

$$$$
IIGNKHTYYLJPQW-JTQLQIEISA-N-P12
     RDKit          3D

 17 18  0  0  0  0  0  0  0  0999 V2000
    5.9913   -8.8079   24.9399 C   0  0  0  0  0  0  0  0  0  0  0  0
    5.0093   -9.3178   23.8844 C   0  0  0  0  0  0  0  0  0  0  0  0
    3.6014   -8.8845   24.2971 C   0  0  0  0  0  0  0  0  0  0  0  0
    5.4222   -8.7279   22.5273 C   0  0  0  0  0  0  0  0  0  0  0  0
    4.7272   -9.6148   21.5203 C   0  0  0  0  0  0  0  0  0  0  0  0
    4.7672  -11.0143   22.1148 C   0  0  0  0  0  0  0  0  0  0  0  0
    5.0925  -10.8376   23.6039 C   0  0  2  0  0  0  0  0  0  0  0  0
    4.2571  -11.6929   24.4024 N   0  0  0  0  0  0  0  0  0  0  0  0
    4.4768  -13.1469   24.8835 C   0  0  0  0  0  0  0  0  0  0  0  0
    5.4020  -13.8481   24.7714 O   0  0  0  0  0  0  0  0  0  0  0  0
    3.2486  -13.6317   25.5657 C   0  0  0  0  0  0  0  0  0  0  0  0
    1.9019  -13.2075   25.3879 C   0  0  0  0  0  0  0  0  0  0  0  0
    1.1787  -13.9298   26.3007 C   0  0  0  0  0  0  0  0  0  0  0  0
   -0.2437  -13.9606   26.6762 C   0  0  0  0  0  0  0  0  0  0  0  0
   -0.9687  -14.6640   25.7568 F   0  0  0  0  0  0  0  0  0  0  0  0
    2.0127  -14.7719   26.9606 O   0  0  0  0  0  0  0  0  0  0  0  0
    3.3021  -14.6023   26.4959 N   0  0  0  0  0  0  0  0  0  0  0  0
  1  2  1  0
  2  3  1  0
  2  4  1  0
  4  5  1  0
  5  6  1  0
  6  7  1  0
  7  8  1  1
  8  9  1  0
  9 10  2  0
  9 11  1  0
 11 12  1  0
 12 13  2  0
 13 14  1  0
 14 15  1  0
 13 16  1  0
 16 17  1  0
  7  2  1  0
 17 11  2  0
M  END
>  <inchikey>  (959) 
IIGNKHTYYLJPQW-UHFFFAOYSA-N

>  <tags>  (959) 
fragmenstein_placed,CpKRS_FrAncestor_bulkdock_iter2

>  <ref_pdb>  (959) 
x0485c

>  <energy_score>  (959) 
-6.867694

>  <distance_score>  (959) 
0.318583

>  <HIPPO Pose ID>  (959) 
57434

>  <ref_mols>  (959) 
x0421b

>  <smiles>  (959) 
CC1(C)CCC[C@@H]1NC(=O)c1cc(CF)on1

>  <HIPPO Compound ID>  (959) 
34722

>  <alias>  (959) 
IIGNKHTYYLJPQW-JTQLQIEISA-N-P12

>  <subsites>  (959) 


>  <placement_batch>  (959) 
CpKRS_FrAncestor_bulkdock_iter2

>  <name>  (959) 
IIGNKHTYYLJPQW-JTQLQIEISA-N-P12

$$$$
XCXRRNZVUAAOPR-QMMMGPOBSA-N-P12
     RDKit          3D

 16 17  0  0  0  0  0  0  0  0999 V2000
    3.6403   -8.8489   24.3109 C   0  0  0  0  0  0  0  0  0  0  0  0
    5.0358   -9.3007   23.8766 C   0  0  0  0  0  0  0  0  0  0  0  0
    6.0360   -8.8119   24.9244 C   0  0  0  0  0  0  0  0  0  0  0  0
    5.4372   -8.7050   22.5188 C   0  0  0  0  0  0  0  0  0  0  0  0
    4.7176   -9.5764   21.5159 C   0  0  0  0  0  0  0  0  0  0  0  0
    4.7668  -10.9816   22.0949 C   0  0  0  0  0  0  0  0  0  0  0  0
    5.0972  -10.8196   23.5846 C   0  0  2  0  0  0  0  0  0  0  0  0
    4.2456  -11.6662   24.3739 N   0  0  0  0  0  0  0  0  0  0  0  0
    4.4704  -13.0986   24.9063 C   0  0  0  0  0  0  0  0  0  0  0  0
    5.4106  -13.7849   24.8528 O   0  0  0  0  0  0  0  0  0  0  0  0
    3.2480  -13.5555   25.5554 C   0  0  0  0  0  0  0  0  0  0  0  0
    1.9315  -13.1568   25.4768 C   0  0  0  0  0  0  0  0  0  0  0  0
    1.2640  -13.9757   26.3924 C   0  0  0  0  0  0  0  0  0  0  0  0
   -0.3933  -13.9141   26.7096 Cl  0  0  0  0  0  0  0  0  0  0  0  0
    2.0768  -14.8479   26.9857 N   0  0  0  0  0  0  0  0  0  0  0  0
    3.3336  -14.5920   26.4448 O   0  0  0  0  0  0  0  0  0  0  0  0
  1  2  1  0
  2  3  1  0
  2  4  1  0
  4  5  1  0
  5  6  1  0
  6  7  1  0
  7  8  1  1
  8  9  1  0
  9 10  2  0
  9 11  1  0
 11 12  2  0
 12 13  1  0
 13 14  1  0
 13 15  2  0
 15 16  1  0
  7  2  1  0
 16 11  1  0
M  END
>  <inchikey>  (960) 
XCXRRNZVUAAOPR-UHFFFAOYSA-N

>  <tags>  (960) 
fragmenstein_placed,CpKRS_FrAncestor_bulkdock_iter2

>  <ref_pdb>  (960) 
x0485c

>  <energy_score>  (960) 
-16.547426

>  <distance_score>  (960) 
0.316314

>  <HIPPO Pose ID>  (960) 
57438

>  <ref_mols>  (960) 
x0421b

>  <smiles>  (960) 
CC1(C)CCC[C@@H]1NC(=O)c1cc(Cl)no1

>  <HIPPO Compound ID>  (960) 
34725

>  <alias>  (960) 
XCXRRNZVUAAOPR-QMMMGPOBSA-N-P12

>  <subsites>  (960) 


>  <placement_batch>  (960) 
CpKRS_FrAncestor_bulkdock_iter2

>  <name>  (960) 
XCXRRNZVUAAOPR-QMMMGPOBSA-N-P12

$$$$
JABKMYANAHISQM-VIFPVBQESA-N-P12
     RDKit          3D

 15 16  0  0  0  0  0  0  0  0999 V2000
    3.5402   -8.9389   24.2670 C   0  0  0  0  0  0  0  0  0  0  0  0
    4.9680   -9.3218   23.8744 C   0  0  0  0  0  0  0  0  0  0  0  0
    5.9204   -8.8199   24.9606 C   0  0  0  0  0  0  0  0  0  0  0  0
    5.4016   -8.6881   22.5442 C   0  0  0  0  0  0  0  0  0  0  0  0
    4.7367   -9.5471   21.4933 C   0  0  0  0  0  0  0  0  0  0  0  0
    4.7061  -10.9581   22.0631 C   0  0  0  0  0  0  0  0  0  0  0  0
    5.0874  -10.8267   23.5409 C   0  0  2  0  0  0  0  0  0  0  0  0
    4.3247  -11.7417   24.3431 N   0  0  0  0  0  0  0  0  0  0  0  0
    4.6896  -13.1312   24.8949 C   0  0  0  0  0  0  0  0  0  0  0  0
    5.6934  -13.7212   24.8515 O   0  0  0  0  0  0  0  0  0  0  0  0
    3.5198  -13.6959   25.5868 C   0  0  0  0  0  0  0  0  0  0  0  0
    3.5021  -14.7948   26.4795 C   0  0  0  0  0  0  0  0  0  0  0  0
    2.2069  -14.8583   26.9125 C   0  0  0  0  0  0  0  0  0  0  0  0
    1.4711  -13.9051   26.2926 O   0  0  0  0  0  0  0  0  0  0  0  0
    2.2871  -13.1714   25.4468 N   0  0  0  0  0  0  0  0  0  0  0  0
  1  2  1  0
  2  3  1  0
  2  4  1  0
  4  5  1  0
  5  6  1  0
  6  7  1  0
  7  8  1  1
  8  9  1  0
  9 10  2  0
  9 11  1  0
 11 12  1  0
 12 13  2  0
 13 14  1  0
 14 15  1  0
  7  2  1  0
 15 11  2  0
M  END
>  <inchikey>  (961) 
JABKMYANAHISQM-UHFFFAOYSA-N

>  <tags>  (961) 
fragmenstein_placed,CpKRS_FrAncestor_bulkdock_iter2

>  <ref_pdb>  (961) 
x0485c

>  <energy_score>  (961) 
-6.075473

>  <distance_score>  (961) 
0.369187

>  <HIPPO Pose ID>  (961) 
57446

>  <ref_mols>  (961) 
x0421b

>  <smiles>  (961) 
CC1(C)CCC[C@@H]1NC(=O)c1ccon1

>  <HIPPO Compound ID>  (961) 
34727

>  <alias>  (961) 
JABKMYANAHISQM-VIFPVBQESA-N-P12

>  <subsites>  (961) 


>  <placement_batch>  (961) 
CpKRS_FrAncestor_bulkdock_iter2

>  <name>  (961) 
JABKMYANAHISQM-VIFPVBQESA-N-P12

$$$$
DTWVFIFLTLMXHY-VIFPVBQESA-N-P14
     RDKit          3D

 15 16  0  0  0  0  0  0  0  0999 V2000
    5.7685   -8.8239   24.8525 C   0  0  0  0  0  0  0  0  0  0  0  0
    4.8440   -9.3971   23.7755 C   0  0  0  0  0  0  0  0  0  0  0  0
    3.4034   -8.9925   24.1022 C   0  0  0  0  0  0  0  0  0  0  0  0
    5.3233   -8.8166   22.4349 C   0  0  0  0  0  0  0  0  0  0  0  0
    4.7711   -9.7599   21.3959 C   0  0  0  0  0  0  0  0  0  0  0  0
    4.7674  -11.1390   22.0317 C   0  0  0  0  0  0  0  0  0  0  0  0
    4.9931  -10.9209   23.5304 C   0  0  2  0  0  0  0  0  0  0  0  0
    4.1569  -11.8111   24.2885 N   0  0  0  0  0  0  0  0  0  0  0  0
    4.4937  -13.1287   25.0078 C   0  0  0  0  0  0  0  0  0  0  0  0
    5.4843  -13.7418   25.0363 O   0  0  0  0  0  0  0  0  0  0  0  0
    3.3224  -13.5461   25.8247 C   0  0  0  0  0  0  0  0  0  0  0  0
    3.3506  -14.6249   26.7790 C   0  0  0  0  0  0  0  0  0  0  0  0
    2.1431  -14.7484   27.4269 C   0  0  0  0  0  0  0  0  0  0  0  0
    1.0822  -13.5653   26.8116 S   0  0  0  0  0  0  0  0  0  0  0  0
    2.1546  -12.8796   25.7531 N   0  0  0  0  0  0  0  0  0  0  0  0
  1  2  1  0
  2  3  1  0
  2  4  1  0
  4  5  1  0
  5  6  1  0
  6  7  1  0
  7  8  1  1
  8  9  1  0
  9 10  2  0
  9 11  1  0
 11 12  1  0
 12 13  2  0
 13 14  1  0
 14 15  1  0
  7  2  1  0
 15 11  2  0
M  END
>  <inchikey>  (962) 
DTWVFIFLTLMXHY-UHFFFAOYSA-N

>  <tags>  (962) 
fragmenstein_placed,CpKRS_FrAncestor_bulkdock_iter2

>  <ref_pdb>  (962) 
x0485c

>  <energy_score>  (962) 
-33.615447

>  <distance_score>  (962) 
0.336298

>  <HIPPO Pose ID>  (962) 
57456

>  <ref_mols>  (962) 
x0421d

>  <smiles>  (962) 
CC1(C)CCC[C@@H]1NC(=O)c1ccsn1

>  <HIPPO Compound ID>  (962) 
34729

>  <alias>  (962) 
DTWVFIFLTLMXHY-VIFPVBQESA-N-P14

>  <subsites>  (962) 


>  <placement_batch>  (962) 
CpKRS_FrAncestor_bulkdock_iter2

>  <name>  (962) 
DTWVFIFLTLMXHY-VIFPVBQESA-N-P14

$$$$
DABHLHXFEGCEOY-LBPRGKRZSA-N-P12
     RDKit          3D

 19 20  0  0  0  0  0  0  0  0999 V2000
    3.6947   -8.7869   24.3447 C   0  0  0  0  0  0  0  0  0  0  0  0
    5.0843   -9.2225   23.8744 C   0  0  0  0  0  0  0  0  0  0  0  0
    6.0962   -8.7372   24.9105 C   0  0  0  0  0  0  0  0  0  0  0  0
    5.4466   -8.6082   22.5151 C   0  0  0  0  0  0  0  0  0  0  0  0
    4.7293   -9.4917   21.5216 C   0  0  0  0  0  0  0  0  0  0  0  0
    4.8797  -10.8981   22.0747 C   0  0  0  0  0  0  0  0  0  0  0  0
    5.1618  -10.7393   23.5756 C   0  0  2  0  0  0  0  0  0  0  0  0
    4.2655  -11.5741   24.3158 N   0  0  0  0  0  0  0  0  0  0  0  0
    4.4411  -13.0135   24.8423 C   0  0  0  0  0  0  0  0  0  0  0  0
    5.3703  -13.7166   24.8229 O   0  0  0  0  0  0  0  0  0  0  0  0
    3.1365  -13.4401   25.3815 C   0  0  0  0  0  0  0  0  0  0  0  0
    1.9063  -13.0969   24.8493 C   0  0  0  0  0  0  0  0  0  0  0  0
    0.9642  -13.6066   25.6977 N   0  0  0  0  0  0  0  0  0  0  0  0
   -0.4833  -13.6015   25.4421 C   0  0  0  0  0  0  0  0  0  0  0  0
   -1.2971  -13.8696   26.7127 C   0  0  0  0  0  0  0  0  0  0  0  0
   -1.0066  -12.2591   24.8797 C   0  0  0  0  0  0  0  0  0  0  0  0
   -0.7709  -14.6802   24.3782 C   0  0  0  0  0  0  0  0  0  0  0  0
    1.6484  -14.2869   26.6715 C   0  0  0  0  0  0  0  0  0  0  0  0
    2.9503  -14.2314   26.4918 N   0  0  0  0  0  0  0  0  0  0  0  0
  1  2  1  0
  2  3  1  0
  2  4  1  0
  4  5  1  0
  5  6  1  0
  6  7  1  0
  7  8  1  1
  8  9  1  0
  9 10  2  0
  9 11  1  0
 11 12  2  0
 12 13  1  0
 13 14  1  0
 14 15  1  0
 14 16  1  0
 14 17  1  0
 13 18  1  0
 18 19  2  0
  7  2  1  0
 19 11  1  0
M  END
>  <inchikey>  (963) 
DABHLHXFEGCEOY-UHFFFAOYSA-N

>  <tags>  (963) 
fragmenstein_placed,CpKRS_FrAncestor_bulkdock_iter2

>  <ref_pdb>  (963) 
x0485c

>  <energy_score>  (963) 
-10.749474

>  <distance_score>  (963) 
0.543742

>  <HIPPO Pose ID>  (963) 
57469

>  <ref_mols>  (963) 
x0421b

>  <smiles>  (963) 
CC1(C)CCC[C@@H]1NC(=O)c1cn(C(C)(C)C)cn1

>  <HIPPO Compound ID>  (963) 
34730

>  <alias>  (963) 
DABHLHXFEGCEOY-LBPRGKRZSA-N-P12

>  <subsites>  (963) 


>  <placement_batch>  (963) 
CpKRS_FrAncestor_bulkdock_iter2

>  <name>  (963) 
DABHLHXFEGCEOY-LBPRGKRZSA-N-P12

$$$$
XHQCTUGIOSFXKK-UHFFFAOYSA-N-P44
     RDKit          3D

 18 19  0  0  0  0  0  0  0  0999 V2000
   -9.5478  -14.3773   49.1812 C   0  0  0  0  0  0  0  0  0  0  0  0
   -9.2120  -13.2234   48.3175 C   0  0  0  0  0  0  0  0  0  0  0  0
   -8.1010  -12.4589   48.6028 N   0  0  0  0  0  0  0  0  0  0  0  0
   -8.1252  -11.5200   47.6890 C   0  0  0  0  0  0  0  0  0  0  0  0
   -9.1741  -11.5750   46.8302 O   0  0  0  0  0  0  0  0  0  0  0  0
   -9.8826  -12.6872   47.2281 C   0  0  0  0  0  0  0  0  0  0  0  0
  -11.1272  -12.9951   46.5355 C   0  0  0  0  0  0  0  0  0  0  0  0
  -11.7999  -12.1218   46.1554 O   0  0  0  0  0  0  0  0  0  0  0  0
  -11.3667  -14.5190   46.5238 N   0  0  0  0  0  0  0  0  0  0  0  0
  -12.4490  -15.2987   45.9524 C   0  0  2  0  0  0  0  0  0  0  0  0
  -12.5014  -16.6666   46.6219 C   0  0  0  0  0  0  0  0  0  0  0  0
  -12.3867  -15.2677   44.4044 C   0  0  2  0  0  0  0  0  0  0  0  0
  -13.7420  -15.5045   43.7255 C   0  0  0  0  0  0  0  0  0  0  0  0
  -13.8364  -17.0023   43.4794 C   0  0  0  0  0  0  0  0  0  0  0  0
  -12.4007  -17.4791   43.3907 C   0  0  0  0  0  0  0  0  0  0  0  0
  -12.2029  -18.5033   44.2488 F   0  0  0  0  0  0  0  0  0  0  0  0
  -12.1267  -17.9335   42.1496 F   0  0  0  0  0  0  0  0  0  0  0  0
  -11.4900  -16.3159   43.7432 C   0  0  0  0  0  0  0  0  0  0  0  0
  1  2  1  0
  2  3  1  0
  3  4  2  0
  4  5  1  0
  5  6  1  0
  6  7  1  0
  7  8  2  0
  7  9  1  0
  9 10  1  0
 10 11  1  1
 10 12  1  0
 12 13  1  6
 13 14  1  0
 14 15  1  0
 15 16  1  0
 15 17  1  0
 15 18  1  0
  6  2  2  0
 18 12  1  0
M  END
>  <inchikey>  (964) 
XHQCTUGIOSFXKK-UHFFFAOYSA-N

>  <tags>  (964) 
fragmenstein_placed,CpKRS_FrAncestor_bulkdock_iter2

>  <ref_pdb>  (964) 
x0502c

>  <energy_score>  (964) 
-3.735433

>  <distance_score>  (964) 
0.31688

>  <HIPPO Pose ID>  (964) 
57484

>  <ref_mols>  (964) 
x0502b

>  <smiles>  (964) 
Cc1ncoc1C(=O)NC(C)C1CCC(F)(F)C1

>  <HIPPO Compound ID>  (964) 
37403

>  <alias>  (964) 
XHQCTUGIOSFXKK-UHFFFAOYSA-N-P44

>  <subsites>  (964) 


>  <placement_batch>  (964) 
CpKRS_FrAncestor_bulkdock_iter2

>  <name>  (964) 
XHQCTUGIOSFXKK-UHFFFAOYSA-N-P44

$$$$
BSPVXFCPDFYZPS-UHFFFAOYSA-N-P45
     RDKit          3D

 17 18  0  0  0  0  0  0  0  0999 V2000
    3.8846  -15.8154   27.3332 C   0  0  0  0  0  0  0  0  0  0  0  0
    2.9178  -14.7424   27.0121 C   0  0  0  0  0  0  0  0  0  0  0  0
    1.7270  -14.6309   27.6982 N   0  0  0  0  0  0  0  0  0  0  0  0
    1.1654  -13.5821   27.1533 C   0  0  0  0  0  0  0  0  0  0  0  0
    1.8588  -12.9803   26.1581 O   0  0  0  0  0  0  0  0  0  0  0  0
    3.0095  -13.7242   26.0788 C   0  0  0  0  0  0  0  0  0  0  0  0
    4.0603  -13.3463   25.1599 C   0  0  0  0  0  0  0  0  0  0  0  0
    5.0340  -13.9875   25.0973 O   0  0  0  0  0  0  0  0  0  0  0  0
    3.6644  -12.0462   24.4133 N   0  0  0  0  0  0  0  0  0  0  0  0
    4.4325  -11.2079   23.4976 C   0  0  0  0  0  0  0  0  0  0  0  0
    5.7121  -10.8670   24.2224 C   0  0  0  0  0  0  0  0  0  0  0  0
    4.7669  -12.0957   22.2974 C   0  0  0  0  0  0  0  0  0  0  0  0
    3.6881   -9.9129   23.0626 C   0  0  0  0  0  0  0  0  0  0  0  0
    3.6982   -8.7874   24.1113 C   0  0  0  0  0  0  0  0  0  0  0  0
    4.9712   -7.9632   23.8467 C   0  0  0  0  0  0  0  0  0  0  0  0
    5.3624   -8.2287   22.4021 C   0  0  0  0  0  0  0  0  0  0  0  0
    4.2867   -9.1518   21.8628 C   0  0  0  0  0  0  0  0  0  0  0  0
  1  2  1  0
  2  3  1  0
  3  4  2  0
  4  5  1  0
  5  6  1  0
  6  7  1  0
  7  8  2  0
  7  9  1  0
  9 10  1  0
 10 11  1  0
 10 12  1  0
 10 13  1  0
 13 14  1  0
 14 15  1  0
 15 16  1  0
 16 17  1  0
  6  2  2  0
 17 13  1  0
M  END
>  <inchikey>  (965) 
BSPVXFCPDFYZPS-UHFFFAOYSA-N

>  <tags>  (965) 
fragmenstein_placed,CpKRS_FrAncestor_bulkdock_iter2

>  <ref_pdb>  (965) 
x0502c

>  <energy_score>  (965) 
-23.656344

>  <distance_score>  (965) 
0.705901

>  <HIPPO Pose ID>  (965) 
57492

>  <ref_mols>  (965) 
x0502a

>  <smiles>  (965) 
Cc1ncoc1C(=O)NC(C)(C)C1CCCC1

>  <HIPPO Compound ID>  (965) 
37406

>  <alias>  (965) 
BSPVXFCPDFYZPS-UHFFFAOYSA-N-P45

>  <subsites>  (965) 


>  <placement_batch>  (965) 
CpKRS_FrAncestor_bulkdock_iter2

>  <name>  (965) 
BSPVXFCPDFYZPS-UHFFFAOYSA-N-P45

$$$$
OHJYUWQQRSQLHO-RKDXNWHRSA-N-P45
     RDKit          3D

 16 17  0  0  0  0  0  0  0  0999 V2000
    4.2489  -15.8287   27.3515 C   0  0  0  0  0  0  0  0  0  0  0  0
    3.2496  -14.8137   26.9709 C   0  0  0  0  0  0  0  0  0  0  0  0
    2.0412  -14.7356   27.6342 N   0  0  0  0  0  0  0  0  0  0  0  0
    1.4297  -13.7513   27.0276 C   0  0  0  0  0  0  0  0  0  0  0  0
    2.1071  -13.1709   26.0064 O   0  0  0  0  0  0  0  0  0  0  0  0
    3.3121  -13.8420   25.9883 C   0  0  0  0  0  0  0  0  0  0  0  0
    4.3587  -13.4277   25.0661 C   0  0  0  0  0  0  0  0  0  0  0  0
    5.4499  -13.8231   25.1733 O   0  0  0  0  0  0  0  0  0  0  0  0
    3.7551  -12.4212   24.0682 N   0  0  0  0  0  0  0  0  0  0  0  0
    4.3447  -11.7623   22.9347 C   0  0  0  0  0  0  0  0  0  0  0  0
    4.2414  -10.2482   23.0515 C   0  0  1  0  0  0  0  0  0  0  0  0
    5.0026   -9.6715   24.2503 C   0  0  0  0  0  0  0  0  0  0  0  0
    5.4990   -8.2906   23.8203 C   0  0  0  0  0  0  0  0  0  0  0  0
    5.0151   -8.1041   22.3885 C   0  0  0  0  0  0  0  0  0  0  0  0
    4.8613   -9.5174   21.8719 C   0  0  1  0  0  0  0  0  0  0  0  0
    6.0967  -10.0119   21.6262 F   0  0  0  0  0  0  0  0  0  0  0  0
  1  2  1  0
  2  3  1  0
  3  4  2  0
  4  5  1  0
  5  6  1  0
  6  7  1  0
  7  8  2  0
  7  9  1  0
  9 10  1  0
 11 10  1  6
 11 12  1  0
 12 13  1  0
 13 14  1  0
 14 15  1  0
 15 16  1  1
  6  2  2  0
 15 11  1  0
M  END
>  <inchikey>  (966) 
OHJYUWQQRSQLHO-UHFFFAOYSA-N

>  <tags>  (966) 
fragmenstein_placed,CpKRS_FrAncestor_bulkdock_iter2

>  <ref_pdb>  (966) 
x0502c

>  <energy_score>  (966) 
-10.823359

>  <distance_score>  (966) 
0.392801

>  <HIPPO Pose ID>  (966) 
57495

>  <ref_mols>  (966) 
x0502a

>  <smiles>  (966) 
Cc1ncoc1C(=O)NC[C@H]1CCC[C@H]1F

>  <HIPPO Compound ID>  (966) 
37407

>  <alias>  (966) 
OHJYUWQQRSQLHO-RKDXNWHRSA-N-P45

>  <subsites>  (966) 


>  <placement_batch>  (966) 
CpKRS_FrAncestor_bulkdock_iter2

>  <name>  (966) 
OHJYUWQQRSQLHO-RKDXNWHRSA-N-P45

$$$$
KRSGXYOWOBUWOX-IUCAKERBSA-N-P46
     RDKit          3D

 19 20  0  0  0  0  0  0  0  0999 V2000
    4.2396  -15.7930   27.2551 C   0  0  0  0  0  0  0  0  0  0  0  0
    3.2714  -14.7406   26.8933 C   0  0  0  0  0  0  0  0  0  0  0  0
    2.0692  -14.6051   27.5624 N   0  0  0  0  0  0  0  0  0  0  0  0
    1.5051  -13.5831   26.9662 C   0  0  0  0  0  0  0  0  0  0  0  0
    2.1967  -13.0561   25.9222 O   0  0  0  0  0  0  0  0  0  0  0  0
    3.3681  -13.7850   25.9004 C   0  0  0  0  0  0  0  0  0  0  0  0
    4.4157  -13.4417   24.9516 C   0  0  0  0  0  0  0  0  0  0  0  0
    5.5180  -13.7863   25.1014 O   0  0  0  0  0  0  0  0  0  0  0  0
    3.7805  -12.5886   23.8409 N   0  0  0  0  0  0  0  0  0  0  0  0
    4.3810  -11.9029   22.7352 C   0  0  0  0  0  0  0  0  0  0  0  0
    4.9706  -10.5753   23.1705 C   0  0  1  0  0  0  0  0  0  0  0  0
    5.2891   -9.6443   22.0085 C   0  0  0  0  0  0  0  0  0  0  0  0
    5.4761   -8.2903   22.6760 C   0  0  0  0  0  0  0  0  0  0  0  0
    4.6243   -8.3285   23.9522 C   0  0  2  0  0  0  0  0  0  0  0  0
    5.4372   -7.9945   25.1886 C   0  0  0  0  0  0  0  0  0  0  0  0
    6.4314   -8.8789   25.3923 F   0  0  0  0  0  0  0  0  0  0  0  0
    5.9967   -6.7686   25.0830 F   0  0  0  0  0  0  0  0  0  0  0  0
    4.6513   -7.9809   26.2873 F   0  0  0  0  0  0  0  0  0  0  0  0
    4.0144   -9.7247   23.9977 C   0  0  0  0  0  0  0  0  0  0  0  0
  1  2  1  0
  2  3  1  0
  3  4  2  0
  4  5  1  0
  5  6  1  0
  6  7  1  0
  7  8  2  0
  7  9  1  0
  9 10  1  0
 11 10  1  6
 11 12  1  0
 12 13  1  0
 13 14  1  0
 14 15  1  1
 15 16  1  0
 15 17  1  0
 15 18  1  0
 14 19  1  0
  6  2  2  0
 19 11  1  0
M  END
>  <inchikey>  (967) 
KRSGXYOWOBUWOX-UHFFFAOYSA-N

>  <tags>  (967) 
fragmenstein_placed,CpKRS_FrAncestor_bulkdock_iter2

>  <ref_pdb>  (967) 
x0502c

>  <energy_score>  (967) 
-6.951233

>  <distance_score>  (967) 
0.425717

>  <HIPPO Pose ID>  (967) 
57500

>  <ref_mols>  (967) 
x0502c

>  <smiles>  (967) 
Cc1ncoc1C(=O)NC[C@H]1CC[C@H](C(F)(F)F)C1

>  <HIPPO Compound ID>  (967) 
37408

>  <alias>  (967) 
KRSGXYOWOBUWOX-IUCAKERBSA-N-P46

>  <subsites>  (967) 


>  <placement_batch>  (967) 
CpKRS_FrAncestor_bulkdock_iter2

>  <name>  (967) 
KRSGXYOWOBUWOX-IUCAKERBSA-N-P46

$$$$
YQALBKUXHGNWNU-QMMMGPOBSA-N-P45
     RDKit          3D

 16 17  0  0  0  0  0  0  0  0999 V2000
    4.1048  -15.9163   27.4095 C   0  0  0  0  0  0  0  0  0  0  0  0
    3.1548  -14.8470   27.0497 C   0  0  0  0  0  0  0  0  0  0  0  0
    1.9243  -14.7555   27.6687 N   0  0  0  0  0  0  0  0  0  0  0  0
    1.3828  -13.7068   27.1048 C   0  0  0  0  0  0  0  0  0  0  0  0
    2.1271  -13.0923   26.1535 O   0  0  0  0  0  0  0  0  0  0  0  0
    3.2966  -13.8213   26.1335 C   0  0  0  0  0  0  0  0  0  0  0  0
    4.3914  -13.4149   25.2694 C   0  0  0  0  0  0  0  0  0  0  0  0
    5.4046  -13.9903   25.2691 O   0  0  0  0  0  0  0  0  0  0  0  0
    3.9364  -12.1941   24.4467 N   0  0  0  0  0  0  0  0  0  0  0  0
    4.6678  -11.3631   23.5156 C   0  0  1  0  0  0  0  0  0  0  0  0
    4.9495  -12.2082   22.2878 C   0  0  0  0  0  0  0  0  0  0  0  0
    3.8850  -10.0796   23.1678 C   0  0  0  0  0  0  0  0  0  0  0  0
    4.4941   -9.2162   22.0579 C   0  0  0  0  0  0  0  0  0  0  0  0
    5.6122   -8.4368   22.7315 C   0  0  0  0  0  0  0  0  0  0  0  0
    5.2415   -8.3665   24.2098 C   0  0  0  0  0  0  0  0  0  0  0  0
    3.9017   -9.0864   24.3304 C   0  0  0  0  0  0  0  0  0  0  0  0
  1  2  1  0
  2  3  1  0
  3  4  2  0
  4  5  1  0
  5  6  1  0
  6  7  1  0
  7  8  2  0
  7  9  1  0
  9 10  1  0
 10 11  1  6
 10 12  1  0
 12 13  1  0
 13 14  1  0
 14 15  1  0
 15 16  1  0
  6  2  2  0
 16 12  1  0
M  END
>  <inchikey>  (968) 
YQALBKUXHGNWNU-UHFFFAOYSA-N

>  <tags>  (968) 
fragmenstein_placed,CpKRS_FrAncestor_bulkdock_iter2

>  <ref_pdb>  (968) 
x0502c

>  <energy_score>  (968) 
-8.268314

>  <distance_score>  (968) 
0.565459

>  <HIPPO Pose ID>  (968) 
57501

>  <ref_mols>  (968) 
x0502a

>  <smiles>  (968) 
Cc1ncoc1C(=O)N[C@@H](C)C1CCCC1

>  <HIPPO Compound ID>  (968) 
37402

>  <alias>  (968) 
YQALBKUXHGNWNU-QMMMGPOBSA-N-P45

>  <subsites>  (968) 


>  <placement_batch>  (968) 
CpKRS_FrAncestor_bulkdock_iter2

>  <name>  (968) 
YQALBKUXHGNWNU-QMMMGPOBSA-N-P45

$$$$
ZFYPSZISIXYLPJ-UHFFFAOYSA-N-P48
     RDKit          3D

 18 18  0  0  0  0  0  0  0  0999 V2000
    4.1565  -15.7796   27.2012 C   0  0  0  0  0  0  0  0  0  0  0  0
    3.0405  -14.8266   27.0238 C   0  0  0  0  0  0  0  0  0  0  0  0
    1.8727  -14.9588   27.7407 N   0  0  0  0  0  0  0  0  0  0  0  0
    1.1170  -13.9866   27.2885 C   0  0  0  0  0  0  0  0  0  0  0  0
    1.6832  -13.2108   26.3228 O   0  0  0  0  0  0  0  0  0  0  0  0
    2.9395  -13.7487   26.1641 C   0  0  0  0  0  0  0  0  0  0  0  0
    3.8587  -13.2139   25.1765 C   0  0  0  0  0  0  0  0  0  0  0  0
    4.9418  -13.6337   25.0945 O   0  0  0  0  0  0  0  0  0  0  0  0
    3.1208  -12.1791   24.3060 N   0  0  0  0  0  0  0  0  0  0  0  0
    3.5362  -11.5020   23.0728 C   0  0  1  0  0  0  0  0  0  0  0  0
    4.2594  -10.1263   23.2630 C   0  0  0  0  0  0  0  0  0  0  0  0
    3.2046   -9.0785   23.6585 C   0  0  0  0  0  0  0  0  0  0  0  0
    5.2738  -10.1580   24.3937 C   0  0  0  0  0  0  0  0  0  0  0  0
    5.0144   -9.6267   22.0146 C   0  0  0  0  0  0  0  0  0  0  0  0
    4.2724  -12.5014   22.1612 C   0  0  0  0  0  0  0  0  0  0  0  0
    5.5117  -12.7862   22.5811 F   0  0  0  0  0  0  0  0  0  0  0  0
    3.5540  -13.6450   22.0853 F   0  0  0  0  0  0  0  0  0  0  0  0
    4.3777  -11.9908   20.9178 F   0  0  0  0  0  0  0  0  0  0  0  0
  1  2  1  0
  2  3  1  0
  3  4  2  0
  4  5  1  0
  5  6  1  0
  6  7  1  0
  7  8  2  0
  7  9  1  0
 10  9  1  1
 10 11  1  0
 11 12  1  0
 11 13  1  0
 11 14  1  0
 10 15  1  0
 15 16  1  0
 15 17  1  0
 15 18  1  0
  6  2  2  0
M  END
>  <inchikey>  (969) 
ZFYPSZISIXYLPJ-UHFFFAOYSA-N

>  <tags>  (969) 
fragmenstein_placed,CpKRS_FrAncestor_bulkdock_iter2

>  <ref_pdb>  (969) 
x0502c

>  <energy_score>  (969) 
-20.944552

>  <distance_score>  (969) 
0.659889

>  <HIPPO Pose ID>  (969) 
57504

>  <ref_mols>  (969) 
x0504a

>  <smiles>  (969) 
Cc1ncoc1C(=O)NC(C(C)(C)C)C(F)(F)F

>  <HIPPO Compound ID>  (969) 
37409

>  <alias>  (969) 
ZFYPSZISIXYLPJ-UHFFFAOYSA-N-P48

>  <subsites>  (969) 


>  <placement_batch>  (969) 
CpKRS_FrAncestor_bulkdock_iter2

>  <name>  (969) 
ZFYPSZISIXYLPJ-UHFFFAOYSA-N-P48

$$$$
PXVUZOIPBVOZJG-UHFFFAOYSA-N-P49
     RDKit          3D

 16 16  0  0  0  0  0  0  0  0999 V2000
    4.2414  -15.8269   26.5610 C   0  0  0  0  0  0  0  0  0  0  0  0
    3.1751  -14.8039   26.5755 C   0  0  0  0  0  0  0  0  0  0  0  0
    2.0704  -14.9312   27.3954 N   0  0  0  0  0  0  0  0  0  0  0  0
    1.3756  -13.8518   27.1376 C   0  0  0  0  0  0  0  0  0  0  0  0
    1.9035  -13.0201   26.2042 O   0  0  0  0  0  0  0  0  0  0  0  0
    3.0857  -13.6324   25.8451 C   0  0  0  0  0  0  0  0  0  0  0  0
    3.9503  -13.0233   24.8454 C   0  0  0  0  0  0  0  0  0  0  0  0
    4.8983  -13.5779   24.4531 O   0  0  0  0  0  0  0  0  0  0  0  0
    3.3211  -11.6840   24.4053 N   0  0  0  0  0  0  0  0  0  0  0  0
    3.7884  -10.6827   23.4379 C   0  0  0  0  0  0  0  0  0  0  0  0
    4.2082  -11.4421   22.1677 C   0  0  0  0  0  0  0  0  0  0  0  0
    2.5775   -9.7926   23.1104 C   0  0  0  0  0  0  0  0  0  0  0  0
    4.9843   -9.8178   23.9676 C   0  0  0  0  0  0  0  0  0  0  0  0
    4.5849   -8.8686   25.0937 C   0  0  0  0  0  0  0  0  0  0  0  0
    5.6833   -8.9822   22.8876 C   0  0  0  0  0  0  0  0  0  0  0  0
    5.9336  -10.6613   24.4715 F   0  0  0  0  0  0  0  0  0  0  0  0
  1  2  1  0
  2  3  1  0
  3  4  2  0
  4  5  1  0
  5  6  1  0
  6  7  1  0
  7  8  2  0
  7  9  1  0
  9 10  1  0
 10 11  1  0
 10 12  1  0
 10 13  1  0
 13 14  1  0
 13 15  1  0
 13 16  1  0
  6  2  2  0
M  END
>  <inchikey>  (970) 
PXVUZOIPBVOZJG-UHFFFAOYSA-N

>  <tags>  (970) 
fragmenstein_placed,CpKRS_FrAncestor_bulkdock_iter2

>  <ref_pdb>  (970) 
x0502c

>  <energy_score>  (970) 
-21.306635

>  <distance_score>  (970) 
0.618703

>  <HIPPO Pose ID>  (970) 
57508

>  <ref_mols>  (970) 
x0504b

>  <smiles>  (970) 
Cc1ncoc1C(=O)NC(C)(C)C(C)(C)F

>  <HIPPO Compound ID>  (970) 
37410

>  <alias>  (970) 
PXVUZOIPBVOZJG-UHFFFAOYSA-N-P49

>  <subsites>  (970) 


>  <placement_batch>  (970) 
CpKRS_FrAncestor_bulkdock_iter2

>  <name>  (970) 
PXVUZOIPBVOZJG-UHFFFAOYSA-N-P49

$$$$
OFEYKRAJUPORBR-UHFFFAOYSA-N-P49
     RDKit          3D

 16 16  0  0  0  0  0  0  0  0999 V2000
    4.1601  -15.9477   26.6143 C   0  0  0  0  0  0  0  0  0  0  0  0
    3.0987  -14.9205   26.6071 C   0  0  0  0  0  0  0  0  0  0  0  0
    1.9783  -15.0409   27.4048 N   0  0  0  0  0  0  0  0  0  0  0  0
    1.3011  -13.9508   27.1470 C   0  0  0  0  0  0  0  0  0  0  0  0
    1.8514  -13.1220   26.2246 O   0  0  0  0  0  0  0  0  0  0  0  0
    3.0339  -13.7440   25.8847 C   0  0  0  0  0  0  0  0  0  0  0  0
    3.9346  -13.1198   24.9302 C   0  0  0  0  0  0  0  0  0  0  0  0
    4.9207  -13.6425   24.5946 O   0  0  0  0  0  0  0  0  0  0  0  0
    3.3384  -11.7581   24.5249 N   0  0  0  0  0  0  0  0  0  0  0  0
    3.7907  -10.7770   23.5320 C   0  0  0  0  0  0  0  0  0  0  0  0
    4.1700  -11.5199   22.2447 C   0  0  0  0  0  0  0  0  0  0  0  0
    2.6047   -9.8394   23.2566 C   0  0  0  0  0  0  0  0  0  0  0  0
    5.0010   -9.9518   24.0546 C   0  0  0  0  0  0  0  0  0  0  0  0
    5.5860   -8.9262   23.0982 C   0  0  0  0  0  0  0  0  0  0  0  0
    6.0030  -10.7859   24.4286 F   0  0  0  0  0  0  0  0  0  0  0  0
    4.6292   -9.2903   25.1882 F   0  0  0  0  0  0  0  0  0  0  0  0
  1  2  1  0
  2  3  1  0
  3  4  2  0
  4  5  1  0
  5  6  1  0
  6  7  1  0
  7  8  2  0
  7  9  1  0
  9 10  1  0
 10 11  1  0
 10 12  1  0
 10 13  1  0
 13 14  1  0
 13 15  1  0
 13 16  1  0
  6  2  2  0
M  END
>  <inchikey>  (971) 
OFEYKRAJUPORBR-UHFFFAOYSA-N

>  <tags>  (971) 
fragmenstein_placed,CpKRS_FrAncestor_bulkdock_iter2

>  <ref_pdb>  (971) 
x0502c

>  <energy_score>  (971) 
-29.686895

>  <distance_score>  (971) 
0.592426

>  <HIPPO Pose ID>  (971) 
57520

>  <ref_mols>  (971) 
x0504b

>  <smiles>  (971) 
Cc1ncoc1C(=O)NC(C)(C)C(C)(F)F

>  <HIPPO Compound ID>  (971) 
37414

>  <alias>  (971) 
OFEYKRAJUPORBR-UHFFFAOYSA-N-P49

>  <subsites>  (971) 


>  <placement_batch>  (971) 
CpKRS_FrAncestor_bulkdock_iter2

>  <name>  (971) 
OFEYKRAJUPORBR-UHFFFAOYSA-N-P49

$$$$
AWUTYQQHILIGJD-UHFFFAOYSA-N-P47
     RDKit          3D

 16 16  0  0  0  0  0  0  0  0999 V2000
    4.3034    2.4943   44.0073 C   0  0  0  0  0  0  0  0  0  0  0  0
    3.5325    3.4582   44.8287 C   0  0  0  0  0  0  0  0  0  0  0  0
    3.2979    3.2295   46.1668 N   0  0  0  0  0  0  0  0  0  0  0  0
    2.5864    4.2694   46.5385 C   0  0  0  0  0  0  0  0  0  0  0  0
    2.3465    5.1910   45.5606 O   0  0  0  0  0  0  0  0  0  0  0  0
    2.9520    4.6578   44.4466 C   0  0  0  0  0  0  0  0  0  0  0  0
    2.9254    5.3375   43.1571 C   0  0  0  0  0  0  0  0  0  0  0  0
    3.3618    4.7927   42.2253 O   0  0  0  0  0  0  0  0  0  0  0  0
    2.3383    6.7540   43.3006 N   0  0  0  0  0  0  0  0  0  0  0  0
    2.2495    7.8611   42.3228 C   0  0  0  0  0  0  0  0  0  0  0  0
    1.4862    9.0491   42.9220 C   0  0  0  0  0  0  0  0  0  0  0  0
    1.5066    7.4007   41.0649 C   0  0  0  0  0  0  0  0  0  0  0  0
    3.6537    8.3093   41.8556 C   0  0  0  0  0  0  0  0  0  0  0  0
    3.5847    9.1640   40.8120 F   0  0  0  0  0  0  0  0  0  0  0  0
    4.3256    8.9237   42.8451 F   0  0  0  0  0  0  0  0  0  0  0  0
    4.4231    7.2661   41.4778 F   0  0  0  0  0  0  0  0  0  0  0  0
  1  2  1  0
  2  3  1  0
  3  4  2  0
  4  5  1  0
  5  6  1  0
  6  7  1  0
  7  8  2  0
  7  9  1  0
  9 10  1  0
 10 11  1  0
 10 12  1  0
 10 13  1  0
 13 14  1  0
 13 15  1  0
 13 16  1  0
  6  2  2  0
M  END
>  <inchikey>  (972) 
AWUTYQQHILIGJD-UHFFFAOYSA-N

>  <tags>  (972) 
fragmenstein_placed,CpKRS_FrAncestor_bulkdock_iter2

>  <ref_pdb>  (972) 
x0502c

>  <energy_score>  (972) 
-12.953322

>  <distance_score>  (972) 
0.629653

>  <HIPPO Pose ID>  (972) 
57533

>  <ref_mols>  (972) 
x0504c

>  <smiles>  (972) 
Cc1ncoc1C(=O)NC(C)(C)C(F)(F)F

>  <HIPPO Compound ID>  (972) 
37418

>  <alias>  (972) 
AWUTYQQHILIGJD-UHFFFAOYSA-N-P47

>  <subsites>  (972) 


>  <placement_batch>  (972) 
CpKRS_FrAncestor_bulkdock_iter2

>  <name>  (972) 
AWUTYQQHILIGJD-UHFFFAOYSA-N-P47

$$$$
KDCLJVBDPXHWNA-UHFFFAOYSA-N-P47
     RDKit          3D

 15 15  0  0  0  0  0  0  0  0999 V2000
    4.3590    2.3098   44.2151 C   0  0  0  0  0  0  0  0  0  0  0  0
    3.5911    3.2521   45.0628 C   0  0  0  0  0  0  0  0  0  0  0  0
    3.4273    3.0521   46.4137 N   0  0  0  0  0  0  0  0  0  0  0  0
    2.6874    4.0725   46.7889 C   0  0  0  0  0  0  0  0  0  0  0  0
    2.3715    4.9599   45.8016 O   0  0  0  0  0  0  0  0  0  0  0  0
    2.9340    4.4062   44.6791 C   0  0  0  0  0  0  0  0  0  0  0  0
    2.7600    4.9870   43.3632 C   0  0  0  0  0  0  0  0  0  0  0  0
    2.9227    4.3150   42.4298 O   0  0  0  0  0  0  0  0  0  0  0  0
    2.3757    6.4658   43.4668 N   0  0  0  0  0  0  0  0  0  0  0  0
    2.1989    7.4744   42.4273 C   0  0  1  0  0  0  0  0  0  0  0  0
    1.5720    8.7472   42.9868 C   0  0  0  0  0  0  0  0  0  0  0  0
    3.5387    7.7474   41.7042 C   0  0  0  0  0  0  0  0  0  0  0  0
    3.4926    8.8362   40.6543 C   0  0  0  0  0  0  0  0  0  0  0  0
    3.9949    6.6137   41.1094 F   0  0  0  0  0  0  0  0  0  0  0  0
    4.4822    8.0753   42.6324 F   0  0  0  0  0  0  0  0  0  0  0  0
  1  2  1  0
  2  3  1  0
  3  4  2  0
  4  5  1  0
  5  6  1  0
  6  7  1  0
  7  8  2  0
  7  9  1  0
  9 10  1  0
 10 11  1  1
 10 12  1  0
 12 13  1  0
 12 14  1  0
 12 15  1  0
  6  2  2  0
M  END
>  <inchikey>  (973) 
KDCLJVBDPXHWNA-UHFFFAOYSA-N

>  <tags>  (973) 
fragmenstein_placed,CpKRS_FrAncestor_bulkdock_iter2

>  <ref_pdb>  (973) 
x0502c

>  <energy_score>  (973) 
-12.176772

>  <distance_score>  (973) 
0.588406

>  <HIPPO Pose ID>  (973) 
57536

>  <ref_mols>  (973) 
x0504c

>  <smiles>  (973) 
Cc1ncoc1C(=O)NC(C)C(C)(F)F

>  <HIPPO Compound ID>  (973) 
37419

>  <alias>  (973) 
KDCLJVBDPXHWNA-UHFFFAOYSA-N-P47

>  <subsites>  (973) 


>  <placement_batch>  (973) 
CpKRS_FrAncestor_bulkdock_iter2

>  <name>  (973) 
KDCLJVBDPXHWNA-UHFFFAOYSA-N-P47

$$$$
ODORWLGAKCSKMA-UHFFFAOYSA-N-P47
     RDKit          3D

 15 15  0  0  0  0  0  0  0  0999 V2000
    4.2903    2.4941   44.0957 C   0  0  0  0  0  0  0  0  0  0  0  0
    3.4956    3.4677   44.8831 C   0  0  0  0  0  0  0  0  0  0  0  0
    3.2417    3.2681   46.2213 N   0  0  0  0  0  0  0  0  0  0  0  0
    2.5122    4.3087   46.5558 C   0  0  0  0  0  0  0  0  0  0  0  0
    2.2739    5.2019   45.5508 O   0  0  0  0  0  0  0  0  0  0  0  0
    2.9072    4.6511   44.4631 C   0  0  0  0  0  0  0  0  0  0  0  0
    2.9051    5.2933   43.1554 C   0  0  0  0  0  0  0  0  0  0  0  0
    3.3682    4.7168   42.2560 O   0  0  0  0  0  0  0  0  0  0  0  0
    2.2971    6.7055   43.2282 N   0  0  0  0  0  0  0  0  0  0  0  0
    2.2151    7.7655   42.2086 C   0  0  0  0  0  0  0  0  0  0  0  0
    1.9070    9.1278   42.8382 C   0  0  0  0  0  0  0  0  0  0  0  0
    1.1103    7.4649   41.1894 C   0  0  0  0  0  0  0  0  0  0  0  0
    3.5704    7.8310   41.4691 C   0  0  0  0  0  0  0  0  0  0  0  0
    3.6031    8.8875   40.6192 F   0  0  0  0  0  0  0  0  0  0  0  0
    4.5719    8.0224   42.3731 F   0  0  0  0  0  0  0  0  0  0  0  0
  1  2  1  0
  2  3  1  0
  3  4  2  0
  4  5  1  0
  5  6  1  0
  6  7  1  0
  7  8  2  0
  7  9  1  0
  9 10  1  0
 10 11  1  0
 10 12  1  0
 10 13  1  0
 13 14  1  0
 13 15  1  0
  6  2  2  0
M  END
>  <inchikey>  (974) 
ODORWLGAKCSKMA-UHFFFAOYSA-N

>  <tags>  (974) 
fragmenstein_placed,CpKRS_FrAncestor_bulkdock_iter2

>  <ref_pdb>  (974) 
x0502c

>  <energy_score>  (974) 
-8.640482

>  <distance_score>  (974) 
0.538687

>  <HIPPO Pose ID>  (974) 
57539

>  <ref_mols>  (974) 
x0504c

>  <smiles>  (974) 
Cc1ncoc1C(=O)NC(C)(C)C(F)F

>  <HIPPO Compound ID>  (974) 
37420

>  <alias>  (974) 
ODORWLGAKCSKMA-UHFFFAOYSA-N-P47

>  <subsites>  (974) 


>  <placement_batch>  (974) 
CpKRS_FrAncestor_bulkdock_iter2

>  <name>  (974) 
ODORWLGAKCSKMA-UHFFFAOYSA-N-P47

$$$$
NAIZYSDAANJYGP-UHFFFAOYSA-N-P49
     RDKit          3D

 14 14  0  0  0  0  0  0  0  0999 V2000
    4.1298  -15.9356   26.8085 C   0  0  0  0  0  0  0  0  0  0  0  0
    3.1193  -14.8801   26.5911 C   0  0  0  0  0  0  0  0  0  0  0  0
    1.9466  -14.8467   27.3206 N   0  0  0  0  0  0  0  0  0  0  0  0
    1.3386  -13.7783   26.8688 C   0  0  0  0  0  0  0  0  0  0  0  0
    1.9845  -13.1079   25.8801 O   0  0  0  0  0  0  0  0  0  0  0  0
    3.1526  -13.8189   25.7051 C   0  0  0  0  0  0  0  0  0  0  0  0
    4.1415  -13.3791   24.7320 C   0  0  0  0  0  0  0  0  0  0  0  0
    5.1462  -13.9525   24.5933 O   0  0  0  0  0  0  0  0  0  0  0  0
    3.6008  -12.1271   24.0183 N   0  0  0  0  0  0  0  0  0  0  0  0
    4.2236  -11.2583   23.0473 C   0  0  0  0  0  0  0  0  0  0  0  0
    4.9228  -10.0323   23.6640 C   0  0  0  0  0  0  0  0  0  0  0  0
    4.0028   -9.2156   24.5602 C   0  0  0  0  0  0  0  0  0  0  0  0
    5.4971   -9.1396   22.5682 C   0  0  0  0  0  0  0  0  0  0  0  0
    5.9646  -10.4591   24.4330 F   0  0  0  0  0  0  0  0  0  0  0  0
  1  2  1  0
  2  3  1  0
  3  4  2  0
  4  5  1  0
  5  6  1  0
  6  7  1  0
  7  8  2  0
  7  9  1  0
  9 10  1  0
 10 11  1  0
 11 12  1  0
 11 13  1  0
 11 14  1  0
  6  2  2  0
M  END
>  <inchikey>  (975) 
NAIZYSDAANJYGP-UHFFFAOYSA-N

>  <tags>  (975) 
fragmenstein_placed,CpKRS_FrAncestor_bulkdock_iter2

>  <ref_pdb>  (975) 
x0502c

>  <energy_score>  (975) 
-11.139712

>  <distance_score>  (975) 
0.560438

>  <HIPPO Pose ID>  (975) 
57550

>  <ref_mols>  (975) 
x0504b

>  <smiles>  (975) 
Cc1ncoc1C(=O)NCC(C)(C)F

>  <HIPPO Compound ID>  (975) 
37424

>  <alias>  (975) 
NAIZYSDAANJYGP-UHFFFAOYSA-N-P49

>  <subsites>  (975) 


>  <placement_batch>  (975) 
CpKRS_FrAncestor_bulkdock_iter2

>  <name>  (975) 
NAIZYSDAANJYGP-UHFFFAOYSA-N-P49

$$$$
LUKQMHBYVBPGLM-UHFFFAOYSA-N-P47
     RDKit          3D

 14 14  0  0  0  0  0  0  0  0999 V2000
    4.2722    2.5680   43.9794 C   0  0  0  0  0  0  0  0  0  0  0  0
    3.5189    3.5274   44.8219 C   0  0  0  0  0  0  0  0  0  0  0  0
    3.2676    3.2600   46.1500 N   0  0  0  0  0  0  0  0  0  0  0  0
    2.5776    4.3042   46.5497 C   0  0  0  0  0  0  0  0  0  0  0  0
    2.3637    5.2602   45.5999 O   0  0  0  0  0  0  0  0  0  0  0  0
    2.9683    4.7522   44.4734 C   0  0  0  0  0  0  0  0  0  0  0  0
    2.9576    5.4717   43.2036 C   0  0  0  0  0  0  0  0  0  0  0  0
    3.4035    4.9514   42.2595 O   0  0  0  0  0  0  0  0  0  0  0  0
    2.3369    6.8762   43.3732 N   0  0  0  0  0  0  0  0  0  0  0  0
    2.2199    7.9896   42.4206 C   0  0  0  0  0  0  0  0  0  0  0  0
    1.6559    7.4826   41.0890 C   0  0  0  0  0  0  0  0  0  0  0  0
    1.2990    9.0896   42.9673 C   0  0  0  0  0  0  0  0  0  0  0  0
    3.5952    8.6102   42.1304 C   0  0  0  0  0  0  0  0  0  0  0  0
    4.5490    7.6480   42.0418 F   0  0  0  0  0  0  0  0  0  0  0  0
  1  2  1  0
  2  3  1  0
  3  4  2  0
  4  5  1  0
  5  6  1  0
  6  7  1  0
  7  8  2  0
  7  9  1  0
  9 10  1  0
 10 11  1  0
 10 12  1  0
 10 13  1  0
 13 14  1  0
  6  2  2  0
M  END
>  <inchikey>  (976) 
LUKQMHBYVBPGLM-UHFFFAOYSA-N

>  <tags>  (976) 
fragmenstein_placed,CpKRS_FrAncestor_bulkdock_iter2

>  <ref_pdb>  (976) 
x0502c

>  <energy_score>  (976) 
-9.743027

>  <distance_score>  (976) 
0.661038

>  <HIPPO Pose ID>  (976) 
57554

>  <ref_mols>  (976) 
x0504c

>  <smiles>  (976) 
Cc1ncoc1C(=O)NC(C)(C)CF

>  <HIPPO Compound ID>  (976) 
37425

>  <alias>  (976) 
LUKQMHBYVBPGLM-UHFFFAOYSA-N-P47

>  <subsites>  (976) 


>  <placement_batch>  (976) 
CpKRS_FrAncestor_bulkdock_iter2

>  <name>  (976) 
LUKQMHBYVBPGLM-UHFFFAOYSA-N-P47

$$$$
JTPPQEPWPBUQDW-UHFFFAOYSA-N-P49
     RDKit          3D

 14 14  0  0  0  0  0  0  0  0999 V2000
    4.1826  -15.8581   26.6947 C   0  0  0  0  0  0  0  0  0  0  0  0
    3.1248  -14.8312   26.5908 C   0  0  0  0  0  0  0  0  0  0  0  0
    1.9742  -14.9059   27.3520 N   0  0  0  0  0  0  0  0  0  0  0  0
    1.3065  -13.8364   26.9977 C   0  0  0  0  0  0  0  0  0  0  0  0
    1.8942  -13.0624   26.0504 O   0  0  0  0  0  0  0  0  0  0  0  0
    3.0881  -13.7010   25.7941 C   0  0  0  0  0  0  0  0  0  0  0  0
    4.0281  -13.1397   24.8359 C   0  0  0  0  0  0  0  0  0  0  0  0
    5.0404  -13.6698   24.6073 O   0  0  0  0  0  0  0  0  0  0  0  0
    3.4183  -11.8551   24.2439 N   0  0  0  0  0  0  0  0  0  0  0  0
    3.9712  -10.8932   23.3078 C   0  0  2  0  0  0  0  0  0  0  0  0
    4.4928  -11.6153   22.0737 C   0  0  0  0  0  0  0  0  0  0  0  0
    5.0462  -10.0117   23.9600 C   0  0  1  0  0  0  0  0  0  0  0  0
    5.5847   -8.9265   23.0419 C   0  0  0  0  0  0  0  0  0  0  0  0
    4.4824   -9.3779   25.0331 F   0  0  0  0  0  0  0  0  0  0  0  0
  1  2  1  0
  2  3  1  0
  3  4  2  0
  4  5  1  0
  5  6  1  0
  6  7  1  0
  7  8  2  0
  7  9  1  0
  9 10  1  0
 10 11  1  6
 10 12  1  0
 12 13  1  6
 12 14  1  0
  6  2  2  0
M  END
>  <inchikey>  (977) 
JTPPQEPWPBUQDW-UHFFFAOYSA-N

>  <tags>  (977) 
fragmenstein_placed,CpKRS_FrAncestor_bulkdock_iter2

>  <ref_pdb>  (977) 
x0502c

>  <energy_score>  (977) 
-7.893145

>  <distance_score>  (977) 
0.529668

>  <HIPPO Pose ID>  (977) 
57556

>  <ref_mols>  (977) 
x0504b

>  <smiles>  (977) 
Cc1ncoc1C(=O)NC(C)C(C)F

>  <HIPPO Compound ID>  (977) 
37426

>  <alias>  (977) 
JTPPQEPWPBUQDW-UHFFFAOYSA-N-P49

>  <subsites>  (977) 


>  <placement_batch>  (977) 
CpKRS_FrAncestor_bulkdock_iter2

>  <name>  (977) 
JTPPQEPWPBUQDW-UHFFFAOYSA-N-P49

$$$$
JVMINZOTFBCSDQ-UHFFFAOYSA-N-P48
     RDKit          3D

 17 17  0  0  0  0  0  0  0  0999 V2000
    4.2620  -15.8218   27.0913 C   0  0  0  0  0  0  0  0  0  0  0  0
    3.1220  -14.9007   26.9139 C   0  0  0  0  0  0  0  0  0  0  0  0
    2.0023  -14.9926   27.7123 N   0  0  0  0  0  0  0  0  0  0  0  0
    1.2205  -14.0409   27.2610 C   0  0  0  0  0  0  0  0  0  0  0  0
    1.7224  -13.3208   26.2208 O   0  0  0  0  0  0  0  0  0  0  0  0
    2.9643  -13.8756   26.0009 C   0  0  0  0  0  0  0  0  0  0  0  0
    3.8182  -13.3744   24.9366 C   0  0  0  0  0  0  0  0  0  0  0  0
    4.8334  -13.8910   24.6920 O   0  0  0  0  0  0  0  0  0  0  0  0
    3.1087  -12.1929   24.2493 N   0  0  0  0  0  0  0  0  0  0  0  0
    3.4535  -11.4583   23.0569 C   0  0  0  0  0  0  0  0  0  0  0  0
    4.6390  -10.4937   23.2066 C   0  0  2  0  0  0  0  0  0  0  0  0
    5.2806  -10.2164   21.8497 C   0  0  0  0  0  0  0  0  0  0  0  0
    5.5942  -11.0690   23.9956 F   0  0  0  0  0  0  0  0  0  0  0  0
    4.1944   -9.1817   23.8298 C   0  0  0  0  0  0  0  0  0  0  0  0
    3.2960   -8.5365   23.0242 F   0  0  0  0  0  0  0  0  0  0  0  0
    5.2343   -8.3352   24.0076 F   0  0  0  0  0  0  0  0  0  0  0  0
    3.5787   -9.3344   25.0196 F   0  0  0  0  0  0  0  0  0  0  0  0
  1  2  1  0
  2  3  1  0
  3  4  2  0
  4  5  1  0
  5  6  1  0
  6  7  1  0
  7  8  2  0
  7  9  1  0
  9 10  1  0
 10 11  1  0
 11 12  1  6
 11 13  1  0
 11 14  1  0
 14 15  1  0
 14 16  1  0
 14 17  1  0
  6  2  2  0
M  END
>  <inchikey>  (978) 
JVMINZOTFBCSDQ-UHFFFAOYSA-N

>  <tags>  (978) 
fragmenstein_placed,CpKRS_FrAncestor_bulkdock_iter2

>  <ref_pdb>  (978) 
x0502c

>  <energy_score>  (978) 
-15.897129

>  <distance_score>  (978) 
0.443546

>  <HIPPO Pose ID>  (978) 
57558

>  <ref_mols>  (978) 
x0504a

>  <smiles>  (978) 
Cc1ncoc1C(=O)NCC(C)(F)C(F)(F)F

>  <HIPPO Compound ID>  (978) 
37427

>  <alias>  (978) 
JVMINZOTFBCSDQ-UHFFFAOYSA-N-P48

>  <subsites>  (978) 


>  <placement_batch>  (978) 
CpKRS_FrAncestor_bulkdock_iter2

>  <name>  (978) 
JVMINZOTFBCSDQ-UHFFFAOYSA-N-P48

$$$$
DBKPPQASMJYXAQ-UHFFFAOYSA-N-P47
     RDKit          3D

 14 14  0  0  0  0  0  0  0  0999 V2000
    4.3952    2.3621   43.9849 C   0  0  0  0  0  0  0  0  0  0  0  0
    3.6478    3.2536   44.9006 C   0  0  0  0  0  0  0  0  0  0  0  0
    3.4527    2.9279   46.2259 N   0  0  0  0  0  0  0  0  0  0  0  0
    2.7404    3.9302   46.6900 C   0  0  0  0  0  0  0  0  0  0  0  0
    2.4614    4.9107   45.7864 O   0  0  0  0  0  0  0  0  0  0  0  0
    3.0437    4.4659   44.6217 C   0  0  0  0  0  0  0  0  0  0  0  0
    2.9572    5.2386   43.3924 C   0  0  0  0  0  0  0  0  0  0  0  0
    3.3829    4.8059   42.4002 O   0  0  0  0  0  0  0  0  0  0  0  0
    2.2829    6.5845   43.6809 N   0  0  0  0  0  0  0  0  0  0  0  0
    2.0707    7.7347   42.8243 C   0  0  0  0  0  0  0  0  0  0  0  0
    3.3248    8.2447   42.1036 C   0  0  0  0  0  0  0  0  0  0  0  0
    3.4531    7.8090   40.6631 C   0  0  0  0  0  0  0  0  0  0  0  0
    4.4397    7.8620   42.7833 F   0  0  0  0  0  0  0  0  0  0  0  0
    3.3211    9.6063   42.1237 F   0  0  0  0  0  0  0  0  0  0  0  0
  1  2  1  0
  2  3  1  0
  3  4  2  0
  4  5  1  0
  5  6  1  0
  6  7  1  0
  7  8  2  0
  7  9  1  0
  9 10  1  0
 10 11  1  0
 11 12  1  0
 11 13  1  0
 11 14  1  0
  6  2  2  0
M  END
>  <inchikey>  (979) 
DBKPPQASMJYXAQ-UHFFFAOYSA-N

>  <tags>  (979) 
fragmenstein_placed,CpKRS_FrAncestor_bulkdock_iter2

>  <ref_pdb>  (979) 
x0502c

>  <energy_score>  (979) 
-10.259196

>  <distance_score>  (979) 
0.564917

>  <HIPPO Pose ID>  (979) 
57575

>  <ref_mols>  (979) 
x0504c

>  <smiles>  (979) 
Cc1ncoc1C(=O)NCC(C)(F)F

>  <HIPPO Compound ID>  (979) 
37431

>  <alias>  (979) 
DBKPPQASMJYXAQ-UHFFFAOYSA-N-P47

>  <subsites>  (979) 


>  <placement_batch>  (979) 
CpKRS_FrAncestor_bulkdock_iter2

>  <name>  (979) 
DBKPPQASMJYXAQ-UHFFFAOYSA-N-P47

$$$$
JCJWJTILHCHREK-UHFFFAOYSA-N-P48
     RDKit          3D

 13 13  0  0  0  0  0  0  0  0999 V2000
    4.4042  -15.7056   27.0105 C   0  0  0  0  0  0  0  0  0  0  0  0
    3.2246  -14.8342   26.8392 C   0  0  0  0  0  0  0  0  0  0  0  0
    2.1047  -15.0002   27.6263 N   0  0  0  0  0  0  0  0  0  0  0  0
    1.2744  -14.0863   27.1854 C   0  0  0  0  0  0  0  0  0  0  0  0
    1.7452  -13.3211   26.1635 O   0  0  0  0  0  0  0  0  0  0  0  0
    3.0198  -13.8009   25.9441 C   0  0  0  0  0  0  0  0  0  0  0  0
    3.8535  -13.2121   24.9060 C   0  0  0  0  0  0  0  0  0  0  0  0
    4.9609  -13.5418   24.7592 O   0  0  0  0  0  0  0  0  0  0  0  0
    3.0075  -12.1878   24.1309 N   0  0  0  0  0  0  0  0  0  0  0  0
    3.3153  -11.4212   22.9517 C   0  0  0  0  0  0  0  0  0  0  0  0
    4.6072  -10.6057   23.0071 C   0  0  2  0  0  0  0  0  0  0  0  0
    4.5739   -9.5169   24.0625 C   0  0  0  0  0  0  0  0  0  0  0  0
    4.7664   -9.9833   21.8003 F   0  0  0  0  0  0  0  0  0  0  0  0
  1  2  1  0
  2  3  1  0
  3  4  2  0
  4  5  1  0
  5  6  1  0
  6  7  1  0
  7  8  2  0
  7  9  1  0
  9 10  1  0
 10 11  1  0
 11 12  1  1
 11 13  1  0
  6  2  2  0
M  END
>  <inchikey>  (980) 
JCJWJTILHCHREK-UHFFFAOYSA-N

>  <tags>  (980) 
fragmenstein_placed,CpKRS_FrAncestor_bulkdock_iter2

>  <ref_pdb>  (980) 
x0502c

>  <energy_score>  (980) 
-15.649869

>  <distance_score>  (980) 
0.437532

>  <HIPPO Pose ID>  (980) 
57588

>  <ref_mols>  (980) 
x0504a

>  <smiles>  (980) 
Cc1ncoc1C(=O)NCC(C)F

>  <HIPPO Compound ID>  (980) 
37436

>  <alias>  (980) 
JCJWJTILHCHREK-UHFFFAOYSA-N-P48

>  <subsites>  (980) 


>  <placement_batch>  (980) 
CpKRS_FrAncestor_bulkdock_iter2

>  <name>  (980) 
JCJWJTILHCHREK-UHFFFAOYSA-N-P48

$$$$
ZGEIYCPFUSTSOO-UHFFFAOYSA-N-P47
     RDKit          3D

 17 17  0  0  0  0  0  0  0  0999 V2000
    4.2970    2.4674   44.0727 C   0  0  0  0  0  0  0  0  0  0  0  0
    3.5307    3.4141   44.9174 C   0  0  0  0  0  0  0  0  0  0  0  0
    3.3451    3.1876   46.2626 N   0  0  0  0  0  0  0  0  0  0  0  0
    2.6221    4.2142   46.6512 C   0  0  0  0  0  0  0  0  0  0  0  0
    2.3263    5.1228   45.6768 O   0  0  0  0  0  0  0  0  0  0  0  0
    2.9028    4.5927   44.5478 C   0  0  0  0  0  0  0  0  0  0  0  0
    2.7805    5.2327   43.2468 C   0  0  0  0  0  0  0  0  0  0  0  0
    3.0581    4.6218   42.2969 O   0  0  0  0  0  0  0  0  0  0  0  0
    2.2831    6.6775   43.3901 N   0  0  0  0  0  0  0  0  0  0  0  0
    2.1096    7.7209   42.3908 C   0  0  1  0  0  0  0  0  0  0  0  0
    1.3775    8.9483   42.9056 C   0  0  0  0  0  0  0  0  0  0  0  0
    3.5054    8.1389   41.9366 C   0  0  0  0  0  0  0  0  0  0  0  0
    4.5036    8.0517   42.6415 O   0  0  0  0  0  0  0  0  0  0  0  0
    3.4891    8.6478   40.6726 O   0  0  0  0  0  0  0  0  0  0  0  0
    4.7797    9.0106   40.1364 C   0  0  0  0  0  0  0  0  0  0  0  0
    4.5398   10.0507   39.0490 C   0  0  0  0  0  0  0  0  0  0  0  0
    5.4617    7.7732   39.5624 C   0  0  0  0  0  0  0  0  0  0  0  0
  1  2  1  0
  2  3  1  0
  3  4  2  0
  4  5  1  0
  5  6  1  0
  6  7  1  0
  7  8  2  0
  7  9  1  0
  9 10  1  0
 10 11  1  1
 10 12  1  0
 12 13  2  0
 12 14  1  0
 14 15  1  0
 15 16  1  0
 15 17  1  0
  6  2  2  0
M  END
>  <inchikey>  (981) 
ZGEIYCPFUSTSOO-UHFFFAOYSA-N

>  <tags>  (981) 
fragmenstein_placed,CpKRS_FrAncestor_bulkdock_iter2

>  <ref_pdb>  (981) 
x0502c

>  <energy_score>  (981) 
-14.659851

>  <distance_score>  (981) 
0.47497

>  <HIPPO Pose ID>  (981) 
57593

>  <ref_mols>  (981) 
x0504c

>  <smiles>  (981) 
Cc1ncoc1C(=O)NC(C)C(=O)OC(C)C

>  <HIPPO Compound ID>  (981) 
37437

>  <alias>  (981) 
ZGEIYCPFUSTSOO-UHFFFAOYSA-N-P47

>  <subsites>  (981) 


>  <placement_batch>  (981) 
CpKRS_FrAncestor_bulkdock_iter2

>  <name>  (981) 
ZGEIYCPFUSTSOO-UHFFFAOYSA-N-P47

$$$$
AJUXNZYNCWSLRC-UHFFFAOYSA-N-P47
     RDKit          3D

 16 16  0  0  0  0  0  0  0  0999 V2000
    4.4293    2.2257   44.1359 C   0  0  0  0  0  0  0  0  0  0  0  0
    3.6532    3.1462   44.9981 C   0  0  0  0  0  0  0  0  0  0  0  0
    3.4149    2.8776   46.3277 N   0  0  0  0  0  0  0  0  0  0  0  0
    2.6894    3.8992   46.7254 C   0  0  0  0  0  0  0  0  0  0  0  0
    2.4439    4.8432   45.7727 O   0  0  0  0  0  0  0  0  0  0  0  0
    3.0644    4.3467   44.6513 C   0  0  0  0  0  0  0  0  0  0  0  0
    3.0601    5.0692   43.3925 C   0  0  0  0  0  0  0  0  0  0  0  0
    3.5556    4.5949   42.4535 O   0  0  0  0  0  0  0  0  0  0  0  0
    2.4386    6.4549   43.5944 N   0  0  0  0  0  0  0  0  0  0  0  0
    2.2068    7.5275   42.6519 C   0  0  0  0  0  0  0  0  0  0  0  0
    3.4529    7.7927   41.8155 C   0  0  2  0  0  0  0  0  0  0  0  0
    4.5014    8.0014   42.6706 F   0  0  0  0  0  0  0  0  0  0  0  0
    3.2690    8.9954   40.9195 C   0  0  0  0  0  0  0  0  0  0  0  0
    2.2752    8.7948   40.0219 F   0  0  0  0  0  0  0  0  0  0  0  0
    4.3940    9.2605   40.2157 F   0  0  0  0  0  0  0  0  0  0  0  0
    2.9591   10.1129   41.6159 F   0  0  0  0  0  0  0  0  0  0  0  0
  1  2  1  0
  2  3  1  0
  3  4  2  0
  4  5  1  0
  5  6  1  0
  6  7  1  0
  7  8  2  0
  7  9  1  0
  9 10  1  0
 10 11  1  0
 11 12  1  1
 11 13  1  0
 13 14  1  0
 13 15  1  0
 13 16  1  0
  6  2  2  0
M  END
>  <inchikey>  (982) 
AJUXNZYNCWSLRC-UHFFFAOYSA-N

>  <tags>  (982) 
fragmenstein_placed,CpKRS_FrAncestor_bulkdock_iter2

>  <ref_pdb>  (982) 
x0502c

>  <energy_score>  (982) 
-10.316547

>  <distance_score>  (982) 
0.348416

>  <HIPPO Pose ID>  (982) 
57596

>  <ref_mols>  (982) 
x0504c

>  <smiles>  (982) 
Cc1ncoc1C(=O)NCC(F)C(F)(F)F

>  <HIPPO Compound ID>  (982) 
37438

>  <alias>  (982) 
AJUXNZYNCWSLRC-UHFFFAOYSA-N-P47

>  <subsites>  (982) 


>  <placement_batch>  (982) 
CpKRS_FrAncestor_bulkdock_iter2

>  <name>  (982) 
AJUXNZYNCWSLRC-UHFFFAOYSA-N-P47

$$$$
IMMHPWBQPUPTKA-UHFFFAOYSA-N-P49
     RDKit          3D

 13 13  0  0  0  0  0  0  0  0999 V2000
    4.2099  -15.8266   26.6568 C   0  0  0  0  0  0  0  0  0  0  0  0
    3.1239  -14.8302   26.5482 C   0  0  0  0  0  0  0  0  0  0  0  0
    1.9832  -14.9308   27.3196 N   0  0  0  0  0  0  0  0  0  0  0  0
    1.2812  -13.8839   26.9669 C   0  0  0  0  0  0  0  0  0  0  0  0
    1.8366  -13.1022   26.0060 O   0  0  0  0  0  0  0  0  0  0  0  0
    3.0459  -13.7090   25.7420 C   0  0  0  0  0  0  0  0  0  0  0  0
    3.9605  -13.1163   24.7779 C   0  0  0  0  0  0  0  0  0  0  0  0
    5.0168  -13.5695   24.5920 O   0  0  0  0  0  0  0  0  0  0  0  0
    3.2903  -11.8707   24.1747 N   0  0  0  0  0  0  0  0  0  0  0  0
    3.7428  -10.9697   23.1418 C   0  0  0  0  0  0  0  0  0  0  0  0
    4.9212  -10.0841   23.5504 C   0  0  1  0  0  0  0  0  0  0  0  0
    5.2620   -9.2899   22.4995 F   0  0  0  0  0  0  0  0  0  0  0  0
    4.4988   -9.0179   24.9090 Cl  0  0  0  0  0  0  0  0  0  0  0  0
  1  2  1  0
  2  3  1  0
  3  4  2  0
  4  5  1  0
  5  6  1  0
  6  7  1  0
  7  8  2  0
  7  9  1  0
  9 10  1  0
 10 11  1  0
 11 12  1  6
 11 13  1  0
  6  2  2  0
M  END
>  <inchikey>  (983) 
IMMHPWBQPUPTKA-UHFFFAOYSA-N

>  <tags>  (983) 
fragmenstein_placed,CpKRS_FrAncestor_bulkdock_iter2

>  <ref_pdb>  (983) 
x0502c

>  <energy_score>  (983) 
-13.751326

>  <distance_score>  (983) 
0.396043

>  <HIPPO Pose ID>  (983) 
57598

>  <ref_mols>  (983) 
x0504b

>  <smiles>  (983) 
Cc1ncoc1C(=O)NCC(F)Cl

>  <HIPPO Compound ID>  (983) 
37439

>  <alias>  (983) 
IMMHPWBQPUPTKA-UHFFFAOYSA-N-P49

>  <subsites>  (983) 


>  <placement_batch>  (983) 
CpKRS_FrAncestor_bulkdock_iter2

>  <name>  (983) 
IMMHPWBQPUPTKA-UHFFFAOYSA-N-P49

$$$$
GWVCAMHHNUATHN-UHFFFAOYSA-N-P47
     RDKit          3D

 14 14  0  0  0  0  0  0  0  0999 V2000
    4.4716    2.1684   44.1547 C   0  0  0  0  0  0  0  0  0  0  0  0
    3.6890    3.1461   44.9434 C   0  0  0  0  0  0  0  0  0  0  0  0
    3.4161    2.9627   46.2803 N   0  0  0  0  0  0  0  0  0  0  0  0
    2.6892    4.0131   46.5932 C   0  0  0  0  0  0  0  0  0  0  0  0
    2.4631    4.8897   45.5721 O   0  0  0  0  0  0  0  0  0  0  0  0
    3.1109    4.3205   44.5023 C   0  0  0  0  0  0  0  0  0  0  0  0
    3.1261    4.9391   43.1885 C   0  0  0  0  0  0  0  0  0  0  0  0
    3.6909    4.4175   42.3181 O   0  0  0  0  0  0  0  0  0  0  0  0
    2.3638    6.2639   43.2221 N   0  0  0  0  0  0  0  0  0  0  0  0
    2.2099    7.2906   42.2059 C   0  0  0  0  0  0  0  0  0  0  0  0
    3.5216    7.8787   41.6714 C   0  0  0  0  0  0  0  0  0  0  0  0
    3.2953    9.1446   41.2313 F   0  0  0  0  0  0  0  0  0  0  0  0
    4.4231    7.9823   42.6858 F   0  0  0  0  0  0  0  0  0  0  0  0
    4.3053    6.8768   40.2085 Br  0  0  0  0  0  0  0  0  0  0  0  0
  1  2  1  0
  2  3  1  0
  3  4  2  0
  4  5  1  0
  5  6  1  0
  6  7  1  0
  7  8  2  0
  7  9  1  0
  9 10  1  0
 10 11  1  0
 11 12  1  0
 11 13  1  0
 11 14  1  0
  6  2  2  0
M  END
>  <inchikey>  (984) 
GWVCAMHHNUATHN-UHFFFAOYSA-N

>  <tags>  (984) 
fragmenstein_placed,CpKRS_FrAncestor_bulkdock_iter2

>  <ref_pdb>  (984) 
x0502c

>  <energy_score>  (984) 
-3.353872

>  <distance_score>  (984) 
0.398478

>  <HIPPO Pose ID>  (984) 
57602

>  <ref_mols>  (984) 
x0504c

>  <smiles>  (984) 
Cc1ncoc1C(=O)NCC(F)(F)Br

>  <HIPPO Compound ID>  (984) 
37440

>  <alias>  (984) 
GWVCAMHHNUATHN-UHFFFAOYSA-N-P47

>  <subsites>  (984) 


>  <placement_batch>  (984) 
CpKRS_FrAncestor_bulkdock_iter2

>  <name>  (984) 
GWVCAMHHNUATHN-UHFFFAOYSA-N-P47

$$$$
RZFDIPABMDUTKZ-UHFFFAOYSA-N-P47
     RDKit          3D

 17 17  0  0  0  0  0  0  0  0999 V2000
    4.4587    2.2400   44.1059 C   0  0  0  0  0  0  0  0  0  0  0  0
    3.6885    3.1972   44.9323 C   0  0  0  0  0  0  0  0  0  0  0  0
    3.4383    2.9743   46.2683 N   0  0  0  0  0  0  0  0  0  0  0  0
    2.7105    4.0103   46.6224 C   0  0  0  0  0  0  0  0  0  0  0  0
    2.4679    4.9174   45.6333 O   0  0  0  0  0  0  0  0  0  0  0  0
    3.1001    4.3833   44.5354 C   0  0  0  0  0  0  0  0  0  0  0  0
    3.0727    5.0350   43.2369 C   0  0  0  0  0  0  0  0  0  0  0  0
    3.5891    4.5244   42.3299 O   0  0  0  0  0  0  0  0  0  0  0  0
    2.3051    6.3550   43.3269 N   0  0  0  0  0  0  0  0  0  0  0  0
    2.0867    7.3847   42.3350 C   0  0  0  0  0  0  0  0  0  0  0  0
    3.3138    8.2760   42.0651 C   0  0  0  0  0  0  0  0  0  0  0  0
    4.3751    7.8361   42.8034 F   0  0  0  0  0  0  0  0  0  0  0  0
    3.0205    9.5181   42.5596 F   0  0  0  0  0  0  0  0  0  0  0  0
    3.7567    8.4496   40.5964 C   0  0  0  0  0  0  0  0  0  0  0  0
    2.5888    8.9356   39.7215 C   0  0  0  0  0  0  0  0  0  0  0  0
    4.8805    9.5027   40.5317 C   0  0  0  0  0  0  0  0  0  0  0  0
    4.3209    7.1350   40.0374 C   0  0  0  0  0  0  0  0  0  0  0  0
  1  2  1  0
  2  3  1  0
  3  4  2  0
  4  5  1  0
  5  6  1  0
  6  7  1  0
  7  8  2  0
  7  9  1  0
  9 10  1  0
 10 11  1  0
 11 12  1  0
 11 13  1  0
 11 14  1  0
 14 15  1  0
 14 16  1  0
 14 17  1  0
  6  2  2  0
M  END
>  <inchikey>  (985) 
RZFDIPABMDUTKZ-UHFFFAOYSA-N

>  <tags>  (985) 
fragmenstein_placed,CpKRS_FrAncestor_bulkdock_iter2

>  <ref_pdb>  (985) 
x0502c

>  <energy_score>  (985) 
-25.769067

>  <distance_score>  (985) 
0.35882

>  <HIPPO Pose ID>  (985) 
57605

>  <ref_mols>  (985) 
x0504c

>  <smiles>  (985) 
Cc1ncoc1C(=O)NCC(F)(F)C(C)(C)C

>  <HIPPO Compound ID>  (985) 
37441

>  <alias>  (985) 
RZFDIPABMDUTKZ-UHFFFAOYSA-N-P47

>  <subsites>  (985) 


>  <placement_batch>  (985) 
CpKRS_FrAncestor_bulkdock_iter2

>  <name>  (985) 
RZFDIPABMDUTKZ-UHFFFAOYSA-N-P47

$$$$
FGAMXVUQHKFSEY-UHFFFAOYSA-N-P49
     RDKit          3D

 17 17  0  0  0  0  0  0  0  0999 V2000
    4.0495  -16.1165   26.7092 C   0  0  0  0  0  0  0  0  0  0  0  0
    3.0952  -14.9923   26.6454 C   0  0  0  0  0  0  0  0  0  0  0  0
    1.8675  -15.0498   27.2742 N   0  0  0  0  0  0  0  0  0  0  0  0
    1.3290  -13.8879   27.0014 C   0  0  0  0  0  0  0  0  0  0  0  0
    2.0820  -13.0587   26.2346 O   0  0  0  0  0  0  0  0  0  0  0  0
    3.2428  -13.7711   26.0181 C   0  0  0  0  0  0  0  0  0  0  0  0
    4.3235  -13.1861   25.2404 C   0  0  0  0  0  0  0  0  0  0  0  0
    5.2380  -13.8228   24.8976 O   0  0  0  0  0  0  0  0  0  0  0  0
    3.9701  -11.7107   24.9577 N   0  0  0  0  0  0  0  0  0  0  0  0
    4.6295  -10.7221   24.1031 C   0  0  2  0  0  0  0  0  0  0  0  0
    4.6860   -9.2972   24.6824 C   0  0  0  0  0  0  0  0  0  0  0  0
    5.1590   -8.4173   23.7638 F   0  0  0  0  0  0  0  0  0  0  0  0
    5.5530   -9.2331   25.7145 F   0  0  0  0  0  0  0  0  0  0  0  0
    3.8832  -10.7455   22.7477 C   0  0  0  0  0  0  0  0  0  0  0  0
    3.7673  -12.2084   22.2808 C   0  0  0  0  0  0  0  0  0  0  0  0
    2.4721  -10.1458   22.9573 C   0  0  0  0  0  0  0  0  0  0  0  0
    4.6874   -9.9622   21.6852 C   0  0  0  0  0  0  0  0  0  0  0  0
  1  2  1  0
  2  3  1  0
  3  4  2  0
  4  5  1  0
  5  6  1  0
  6  7  1  0
  7  8  2  0
  7  9  1  0
 10  9  1  1
 10 11  1  0
 11 12  1  0
 11 13  1  0
 10 14  1  0
 14 15  1  0
 14 16  1  0
 14 17  1  0
  6  2  2  0
M  END
>  <inchikey>  (986) 
FGAMXVUQHKFSEY-UHFFFAOYSA-N

>  <tags>  (986) 
fragmenstein_placed,CpKRS_FrAncestor_bulkdock_iter2

>  <ref_pdb>  (986) 
x0502c

>  <energy_score>  (986) 
-2.003778

>  <distance_score>  (986) 
0.773638

>  <HIPPO Pose ID>  (986) 
57607

>  <ref_mols>  (986) 
x0504b

>  <smiles>  (986) 
Cc1ncoc1C(=O)NC(C(F)F)C(C)(C)C

>  <HIPPO Compound ID>  (986) 
37442

>  <alias>  (986) 
FGAMXVUQHKFSEY-UHFFFAOYSA-N-P49

>  <subsites>  (986) 


>  <placement_batch>  (986) 
CpKRS_FrAncestor_bulkdock_iter2

>  <name>  (986) 
FGAMXVUQHKFSEY-UHFFFAOYSA-N-P49

$$$$
JYNTVGOFYKHAGE-UHFFFAOYSA-N-P49
     RDKit          3D

 17 17  0  0  0  0  0  0  0  0999 V2000
    4.1176  -16.0259   26.7033 C   0  0  0  0  0  0  0  0  0  0  0  0
    3.0841  -14.9742   26.6330 C   0  0  0  0  0  0  0  0  0  0  0  0
    1.9656  -15.0098   27.4417 N   0  0  0  0  0  0  0  0  0  0  0  0
    1.3176  -13.9202   27.1146 C   0  0  0  0  0  0  0  0  0  0  0  0
    1.8864  -13.1708   26.1366 O   0  0  0  0  0  0  0  0  0  0  0  0
    3.0478  -13.8488   25.8329 C   0  0  0  0  0  0  0  0  0  0  0  0
    3.9617  -13.3160   24.8366 C   0  0  0  0  0  0  0  0  0  0  0  0
    4.9425  -13.8741   24.5506 O   0  0  0  0  0  0  0  0  0  0  0  0
    3.3973  -11.9761   24.3397 N   0  0  0  0  0  0  0  0  0  0  0  0
    3.8749  -11.0789   23.3108 C   0  0  0  0  0  0  0  0  0  0  0  0
    4.8235  -10.0032   23.8419 C   0  0  0  0  0  0  0  0  0  0  0  0
    5.9943  -10.5644   24.2332 F   0  0  0  0  0  0  0  0  0  0  0  0
    4.2858   -9.4389   24.9622 F   0  0  0  0  0  0  0  0  0  0  0  0
    5.0403   -8.9354   22.7787 C   0  0  0  0  0  0  0  0  0  0  0  0
    5.8615   -7.9440   23.1923 F   0  0  0  0  0  0  0  0  0  0  0  0
    5.5442   -9.4400   21.6297 F   0  0  0  0  0  0  0  0  0  0  0  0
    3.8499   -8.3504   22.4518 F   0  0  0  0  0  0  0  0  0  0  0  0
  1  2  1  0
  2  3  1  0
  3  4  2  0
  4  5  1  0
  5  6  1  0
  6  7  1  0
  7  8  2  0
  7  9  1  0
  9 10  1  0
 10 11  1  0
 11 12  1  0
 11 13  1  0
 11 14  1  0
 14 15  1  0
 14 16  1  0
 14 17  1  0
  6  2  2  0
M  END
>  <inchikey>  (987) 
JYNTVGOFYKHAGE-UHFFFAOYSA-N

>  <tags>  (987) 
fragmenstein_placed,CpKRS_FrAncestor_bulkdock_iter2

>  <ref_pdb>  (987) 
x0502c

>  <energy_score>  (987) 
-8.299595

>  <distance_score>  (987) 
0.333302

>  <HIPPO Pose ID>  (987) 
57610

>  <ref_mols>  (987) 
x0504b

>  <smiles>  (987) 
Cc1ncoc1C(=O)NCC(F)(F)C(F)(F)F

>  <HIPPO Compound ID>  (987) 
37443

>  <alias>  (987) 
JYNTVGOFYKHAGE-UHFFFAOYSA-N-P49

>  <subsites>  (987) 


>  <placement_batch>  (987) 
CpKRS_FrAncestor_bulkdock_iter2

>  <name>  (987) 
JYNTVGOFYKHAGE-UHFFFAOYSA-N-P49

$$$$
YQCAIWRFFOOEGY-UHFFFAOYSA-N-P47
     RDKit          3D

 14 14  0  0  0  0  0  0  0  0999 V2000
    4.4681    2.1780   44.1473 C   0  0  0  0  0  0  0  0  0  0  0  0
    3.6885    3.1468   44.9507 C   0  0  0  0  0  0  0  0  0  0  0  0
    3.4282    2.9515   46.2884 N   0  0  0  0  0  0  0  0  0  0  0  0
    2.6923    3.9912   46.6148 C   0  0  0  0  0  0  0  0  0  0  0  0
    2.4576    4.8780   45.6048 O   0  0  0  0  0  0  0  0  0  0  0  0
    3.1031    4.3235   44.5256 C   0  0  0  0  0  0  0  0  0  0  0  0
    3.1119    4.9598   43.2205 C   0  0  0  0  0  0  0  0  0  0  0  0
    3.6839    4.4574   42.3437 O   0  0  0  0  0  0  0  0  0  0  0  0
    2.3401    6.2785   43.2738 N   0  0  0  0  0  0  0  0  0  0  0  0
    2.1830    7.3217   42.2747 C   0  0  0  0  0  0  0  0  0  0  0  0
    3.4929    7.8517   41.6651 C   0  0  0  0  0  0  0  0  0  0  0  0
    4.4306    7.9720   42.6472 F   0  0  0  0  0  0  0  0  0  0  0  0
    3.2857    9.1055   41.1825 F   0  0  0  0  0  0  0  0  0  0  0  0
    4.1551    6.8711   40.3484 Cl  0  0  0  0  0  0  0  0  0  0  0  0
  1  2  1  0
  2  3  1  0
  3  4  2  0
  4  5  1  0
  5  6  1  0
  6  7  1  0
  7  8  2  0
  7  9  1  0
  9 10  1  0
 10 11  1  0
 11 12  1  0
 11 13  1  0
 11 14  1  0
  6  2  2  0
M  END
>  <inchikey>  (988) 
YQCAIWRFFOOEGY-UHFFFAOYSA-N

>  <tags>  (988) 
fragmenstein_placed,CpKRS_FrAncestor_bulkdock_iter2

>  <ref_pdb>  (988) 
x0502c

>  <energy_score>  (988) 
-11.857595

>  <distance_score>  (988) 
0.374296

>  <HIPPO Pose ID>  (988) 
57614

>  <ref_mols>  (988) 
x0504c

>  <smiles>  (988) 
Cc1ncoc1C(=O)NCC(F)(F)Cl

>  <HIPPO Compound ID>  (988) 
37444

>  <alias>  (988) 
YQCAIWRFFOOEGY-UHFFFAOYSA-N-P47

>  <subsites>  (988) 


>  <placement_batch>  (988) 
CpKRS_FrAncestor_bulkdock_iter2

>  <name>  (988) 
YQCAIWRFFOOEGY-UHFFFAOYSA-N-P47

$$$$
RRLRIBSZSLTVGC-UHFFFAOYSA-N-P47
     RDKit          3D

 14 14  0  0  0  0  0  0  0  0999 V2000
    4.4430    2.2062   44.1587 C   0  0  0  0  0  0  0  0  0  0  0  0
    3.6660    3.1423   45.0021 C   0  0  0  0  0  0  0  0  0  0  0  0
    3.4023    2.8877   46.3292 N   0  0  0  0  0  0  0  0  0  0  0  0
    2.6783    3.9196   46.7044 C   0  0  0  0  0  0  0  0  0  0  0  0
    2.4508    4.8525   45.7358 O   0  0  0  0  0  0  0  0  0  0  0  0
    3.0928    4.3433   44.6330 C   0  0  0  0  0  0  0  0  0  0  0  0
    3.1186    5.0504   43.3657 C   0  0  0  0  0  0  0  0  0  0  0  0
    3.6985    4.5960   42.4673 O   0  0  0  0  0  0  0  0  0  0  0  0
    2.4023    6.3951   43.5058 N   0  0  0  0  0  0  0  0  0  0  0  0
    2.1616    7.4419   42.5293 C   0  0  0  0  0  0  0  0  0  0  0  0
    3.4026    7.8254   41.7198 C   0  0  0  0  0  0  0  0  0  0  0  0
    3.7347    6.8933   40.8033 F   0  0  0  0  0  0  0  0  0  0  0  0
    3.2097    8.9847   41.0512 F   0  0  0  0  0  0  0  0  0  0  0  0
    4.4709    7.9997   42.5363 F   0  0  0  0  0  0  0  0  0  0  0  0
  1  2  1  0
  2  3  1  0
  3  4  2  0
  4  5  1  0
  5  6  1  0
  6  7  1  0
  7  8  2  0
  7  9  1  0
  9 10  1  0
 10 11  1  0
 11 12  1  0
 11 13  1  0
 11 14  1  0
  6  2  2  0
M  END
>  <inchikey>  (989) 
RRLRIBSZSLTVGC-UHFFFAOYSA-N

>  <tags>  (989) 
fragmenstein_placed,CpKRS_FrAncestor_bulkdock_iter2

>  <ref_pdb>  (989) 
x0502c

>  <energy_score>  (989) 
-3.551448

>  <distance_score>  (989) 
0.346986

>  <HIPPO Pose ID>  (989) 
57623

>  <ref_mols>  (989) 
x0504c

>  <smiles>  (989) 
Cc1ncoc1C(=O)NCC(F)(F)F

>  <HIPPO Compound ID>  (989) 
37447

>  <alias>  (989) 
RRLRIBSZSLTVGC-UHFFFAOYSA-N-P47

>  <subsites>  (989) 


>  <placement_batch>  (989) 
CpKRS_FrAncestor_bulkdock_iter2

>  <name>  (989) 
RRLRIBSZSLTVGC-UHFFFAOYSA-N-P47

$$$$
DVCJPCCBVRPCKE-UHFFFAOYSA-N-P49
     RDKit          3D

 13 13  0  0  0  0  0  0  0  0999 V2000
    4.1965  -15.8751   26.6382 C   0  0  0  0  0  0  0  0  0  0  0  0
    3.1208  -14.8650   26.5665 C   0  0  0  0  0  0  0  0  0  0  0  0
    2.0092  -14.9453   27.3813 N   0  0  0  0  0  0  0  0  0  0  0  0
    1.3114  -13.8879   27.0511 C   0  0  0  0  0  0  0  0  0  0  0  0
    1.8413  -13.1195   26.0656 O   0  0  0  0  0  0  0  0  0  0  0  0
    3.0295  -13.7467   25.7582 C   0  0  0  0  0  0  0  0  0  0  0  0
    3.9139  -13.1783   24.7529 C   0  0  0  0  0  0  0  0  0  0  0  0
    4.9373  -13.6729   24.5008 O   0  0  0  0  0  0  0  0  0  0  0  0
    3.2462  -11.9205   24.1745 N   0  0  0  0  0  0  0  0  0  0  0  0
    3.7387  -10.9482   23.2281 C   0  0  0  0  0  0  0  0  0  0  0  0
    4.8991  -10.1117   23.7541 C   0  0  0  0  0  0  0  0  0  0  0  0
    5.2168   -9.1580   22.8392 F   0  0  0  0  0  0  0  0  0  0  0  0
    4.5153   -9.4428   24.8738 F   0  0  0  0  0  0  0  0  0  0  0  0
  1  2  1  0
  2  3  1  0
  3  4  2  0
  4  5  1  0
  5  6  1  0
  6  7  1  0
  7  8  2  0
  7  9  1  0
  9 10  1  0
 10 11  1  0
 11 12  1  0
 11 13  1  0
  6  2  2  0
M  END
>  <inchikey>  (990) 
DVCJPCCBVRPCKE-UHFFFAOYSA-N

>  <tags>  (990) 
fragmenstein_placed,CpKRS_FrAncestor_bulkdock_iter2

>  <ref_pdb>  (990) 
x0502c

>  <energy_score>  (990) 
-17.554542

>  <distance_score>  (990) 
0.31616

>  <HIPPO Pose ID>  (990) 
57625

>  <ref_mols>  (990) 
x0504b

>  <smiles>  (990) 
Cc1ncoc1C(=O)NCC(F)F

>  <HIPPO Compound ID>  (990) 
37448

>  <alias>  (990) 
DVCJPCCBVRPCKE-UHFFFAOYSA-N-P49

>  <subsites>  (990) 


>  <placement_batch>  (990) 
CpKRS_FrAncestor_bulkdock_iter2

>  <name>  (990) 
DVCJPCCBVRPCKE-UHFFFAOYSA-N-P49

$$$$
SDMUBKWOYTYDND-UHFFFAOYSA-N-P47
     RDKit          3D

 12 12  0  0  0  0  0  0  0  0999 V2000
    4.4057    2.2884   44.0711 C   0  0  0  0  0  0  0  0  0  0  0  0
    3.6475    3.1813   44.9760 C   0  0  0  0  0  0  0  0  0  0  0  0
    3.4534    2.8757   46.3053 N   0  0  0  0  0  0  0  0  0  0  0  0
    2.7331    3.8807   46.7521 C   0  0  0  0  0  0  0  0  0  0  0  0
    2.4466    4.8439   45.8323 O   0  0  0  0  0  0  0  0  0  0  0  0
    3.0328    4.3822   44.6777 C   0  0  0  0  0  0  0  0  0  0  0  0
    2.9470    5.1261   43.4341 C   0  0  0  0  0  0  0  0  0  0  0  0
    3.3202    4.6465   42.4417 O   0  0  0  0  0  0  0  0  0  0  0  0
    2.3486    6.5114   43.7048 N   0  0  0  0  0  0  0  0  0  0  0  0
    2.1675    7.6428   42.8271 C   0  0  0  0  0  0  0  0  0  0  0  0
    3.3584    7.8623   41.9076 C   0  0  0  0  0  0  0  0  0  0  0  0
    4.4912    7.9495   42.6580 F   0  0  0  0  0  0  0  0  0  0  0  0
  1  2  1  0
  2  3  1  0
  3  4  2  0
  4  5  1  0
  5  6  1  0
  6  7  1  0
  7  8  2  0
  7  9  1  0
  9 10  1  0
 10 11  1  0
 11 12  1  0
  6  2  2  0
M  END
>  <inchikey>  (991) 
SDMUBKWOYTYDND-UHFFFAOYSA-N

>  <tags>  (991) 
fragmenstein_placed,CpKRS_FrAncestor_bulkdock_iter2

>  <ref_pdb>  (991) 
x0502c

>  <energy_score>  (991) 
-10.013114

>  <distance_score>  (991) 
0.384746

>  <HIPPO Pose ID>  (991) 
57629

>  <ref_mols>  (991) 
x0504c

>  <smiles>  (991) 
Cc1ncoc1C(=O)NCCF

>  <HIPPO Compound ID>  (991) 
37449

>  <alias>  (991) 
SDMUBKWOYTYDND-UHFFFAOYSA-N-P47

>  <subsites>  (991) 


>  <placement_batch>  (991) 
CpKRS_FrAncestor_bulkdock_iter2

>  <name>  (991) 
SDMUBKWOYTYDND-UHFFFAOYSA-N-P47

$$$$
SQSQZZZOMLHXNW-UHFFFAOYSA-N-P47
     RDKit          3D

 17 17  0  0  0  0  0  0  0  0999 V2000
    4.3727    2.3288   44.1007 C   0  0  0  0  0  0  0  0  0  0  0  0
    3.6219    3.2146   45.0199 C   0  0  0  0  0  0  0  0  0  0  0  0
    3.4576    2.9100   46.3535 N   0  0  0  0  0  0  0  0  0  0  0  0
    2.7416    3.9126   46.8127 C   0  0  0  0  0  0  0  0  0  0  0  0
    2.4298    4.8731   45.8983 O   0  0  0  0  0  0  0  0  0  0  0  0
    2.9849    4.4064   44.7314 C   0  0  0  0  0  0  0  0  0  0  0  0
    2.8268    5.1222   43.4799 C   0  0  0  0  0  0  0  0  0  0  0  0
    3.0561    4.5848   42.4751 O   0  0  0  0  0  0  0  0  0  0  0  0
    2.3736    6.5573   43.7565 N   0  0  0  0  0  0  0  0  0  0  0  0
    2.0119    7.6178   42.8476 C   0  0  0  0  0  0  0  0  0  0  0  0
    3.2493    8.1046   42.1118 C   0  0  0  0  0  0  0  0  0  0  0  0
    4.3779    8.1056   42.5867 O   0  0  0  0  0  0  0  0  0  0  0  0
    2.9038    8.5305   40.8648 O   0  0  0  0  0  0  0  0  0  0  0  0
    3.9213    8.9397   39.9155 C   0  0  0  0  0  0  0  0  0  0  0  0
    4.6228   10.2171   40.3799 C   0  0  0  0  0  0  0  0  0  0  0  0
    3.1464    9.2461   38.6255 C   0  0  0  0  0  0  0  0  0  0  0  0
    4.9141    7.8067   39.6291 C   0  0  0  0  0  0  0  0  0  0  0  0
  1  2  1  0
  2  3  1  0
  3  4  2  0
  4  5  1  0
  5  6  1  0
  6  7  1  0
  7  8  2  0
  7  9  1  0
  9 10  1  0
 10 11  1  0
 11 12  2  0
 11 13  1  0
 13 14  1  0
 14 15  1  0
 14 16  1  0
 14 17  1  0
  6  2  2  0
M  END
>  <inchikey>  (992) 
SQSQZZZOMLHXNW-UHFFFAOYSA-N

>  <tags>  (992) 
fragmenstein_placed,CpKRS_FrAncestor_bulkdock_iter2

>  <ref_pdb>  (992) 
x0502c

>  <energy_score>  (992) 
-9.871091

>  <distance_score>  (992) 
0.595019

>  <HIPPO Pose ID>  (992) 
57650

>  <ref_mols>  (992) 
x0504c

>  <smiles>  (992) 
Cc1ncoc1C(=O)NCC(=O)OC(C)(C)C

>  <HIPPO Compound ID>  (992) 
37450

>  <alias>  (992) 
SQSQZZZOMLHXNW-UHFFFAOYSA-N-P47

>  <subsites>  (992) 


>  <placement_batch>  (992) 
CpKRS_FrAncestor_bulkdock_iter2

>  <name>  (992) 
SQSQZZZOMLHXNW-UHFFFAOYSA-N-P47

$$$$
RLGHKXYQYKVXDD-MRVPVSSYSA-N-P49
     RDKit          3D

 17 17  0  0  0  0  0  0  0  0999 V2000
    4.2319  -15.7676   26.6562 C   0  0  0  0  0  0  0  0  0  0  0  0
    3.1024  -14.8200   26.5529 C   0  0  0  0  0  0  0  0  0  0  0  0
    1.9103  -15.0546   27.2078 N   0  0  0  0  0  0  0  0  0  0  0  0
    1.1745  -14.0210   26.8856 C   0  0  0  0  0  0  0  0  0  0  0  0
    1.7584  -13.1216   26.0540 O   0  0  0  0  0  0  0  0  0  0  0  0
    3.0235  -13.6293   25.8543 C   0  0  0  0  0  0  0  0  0  0  0  0
    3.9834  -12.8834   25.0578 C   0  0  0  0  0  0  0  0  0  0  0  0
    5.1012  -13.2100   24.9957 O   0  0  0  0  0  0  0  0  0  0  0  0
    3.2529  -11.6903   24.4069 N   0  0  0  0  0  0  0  0  0  0  0  0
    3.7726  -10.5763   23.6067 C   0  0  2  0  0  0  0  0  0  0  0  0
    5.0604  -10.9012   22.8234 C   0  0  0  0  0  0  0  0  0  0  0  0
    5.4840   -9.7471   21.9019 C   0  0  0  0  0  0  0  0  0  0  0  0
    4.8929  -12.1556   21.9862 C   0  0  0  0  0  0  0  0  0  0  0  0
    3.9683   -9.2963   24.4261 C   0  0  0  0  0  0  0  0  0  0  0  0
    5.0090   -9.3687   25.2744 F   0  0  0  0  0  0  0  0  0  0  0  0
    4.1692   -8.2332   23.6090 F   0  0  0  0  0  0  0  0  0  0  0  0
    2.8561   -9.0134   25.1377 F   0  0  0  0  0  0  0  0  0  0  0  0
  1  2  1  0
  2  3  1  0
  3  4  2  0
  4  5  1  0
  5  6  1  0
  6  7  1  0
  7  8  2  0
  7  9  1  0
 10  9  1  1
 10 11  1  0
 11 12  1  0
 11 13  1  0
 10 14  1  0
 14 15  1  0
 14 16  1  0
 14 17  1  0
  6  2  2  0
M  END
>  <inchikey>  (993) 
RLGHKXYQYKVXDD-UHFFFAOYSA-N

>  <tags>  (993) 
fragmenstein_placed,CpKRS_FrAncestor_bulkdock_iter2

>  <ref_pdb>  (993) 
x0502c

>  <energy_score>  (993) 
-3.850447

>  <distance_score>  (993) 
0.671219

>  <HIPPO Pose ID>  (993) 
57658

>  <ref_mols>  (993) 
x0504b

>  <smiles>  (993) 
Cc1ncoc1C(=O)N[C@H](C(C)C)C(F)(F)F

>  <HIPPO Compound ID>  (993) 
37412

>  <alias>  (993) 
RLGHKXYQYKVXDD-MRVPVSSYSA-N-P49

>  <subsites>  (993) 


>  <placement_batch>  (993) 
CpKRS_FrAncestor_bulkdock_iter2

>  <name>  (993) 
RLGHKXYQYKVXDD-MRVPVSSYSA-N-P49

$$$$
YCIRWRUCGHCDGE-SSDOTTSWSA-N-P48
     RDKit          3D

 15 15  0  0  0  0  0  0  0  0999 V2000
    4.3327  -15.6248   26.9563 C   0  0  0  0  0  0  0  0  0  0  0  0
    3.2052  -14.6912   26.7510 C   0  0  0  0  0  0  0  0  0  0  0  0
    2.0194  -14.8580   27.4347 N   0  0  0  0  0  0  0  0  0  0  0  0
    1.2639  -13.8838   26.9862 C   0  0  0  0  0  0  0  0  0  0  0  0
    1.8378  -13.0906   26.0398 O   0  0  0  0  0  0  0  0  0  0  0  0
    3.1091  -13.6017   25.9024 C   0  0  0  0  0  0  0  0  0  0  0  0
    4.0493  -13.0034   24.9649 C   0  0  0  0  0  0  0  0  0  0  0  0
    5.1686  -13.3310   24.9571 O   0  0  0  0  0  0  0  0  0  0  0  0
    3.2819  -12.0421   24.0318 N   0  0  0  0  0  0  0  0  0  0  0  0
    3.7133  -11.3497   22.8246 C   0  0  2  0  0  0  0  0  0  0  0  0
    4.6893  -12.2406   22.0681 C   0  0  0  0  0  0  0  0  0  0  0  0
    4.2155   -9.8873   23.0005 C   0  0  0  0  0  0  0  0  0  0  0  0
    5.0927   -9.3817   21.8503 C   0  0  0  0  0  0  0  0  0  0  0  0
    4.9356   -9.6404   24.3159 C   0  0  0  0  0  0  0  0  0  0  0  0
    3.0971   -9.0699   23.0095 F   0  0  0  0  0  0  0  0  0  0  0  0
  1  2  1  0
  2  3  1  0
  3  4  2  0
  4  5  1  0
  5  6  1  0
  6  7  1  0
  7  8  2  0
  7  9  1  0
  9 10  1  0
 10 11  1  1
 10 12  1  0
 12 13  1  0
 12 14  1  0
 12 15  1  0
  6  2  2  0
M  END
>  <inchikey>  (994) 
YCIRWRUCGHCDGE-UHFFFAOYSA-N

>  <tags>  (994) 
fragmenstein_placed,CpKRS_FrAncestor_bulkdock_iter2

>  <ref_pdb>  (994) 
x0502c

>  <energy_score>  (994) 
-10.092291

>  <distance_score>  (994) 
0.510141

>  <HIPPO Pose ID>  (994) 
57666

>  <ref_mols>  (994) 
x0504a

>  <smiles>  (994) 
Cc1ncoc1C(=O)N[C@H](C)C(C)(C)F

>  <HIPPO Compound ID>  (994) 
37416

>  <alias>  (994) 
YCIRWRUCGHCDGE-SSDOTTSWSA-N-P48

>  <subsites>  (994) 


>  <placement_batch>  (994) 
CpKRS_FrAncestor_bulkdock_iter2

>  <name>  (994) 
YCIRWRUCGHCDGE-SSDOTTSWSA-N-P48

$$$$
SPKLLZIIKQCQHC-RXMQYKEDSA-N-P49
     RDKit          3D

 14 14  0  0  0  0  0  0  0  0999 V2000
    4.1881  -15.8507   26.7205 C   0  0  0  0  0  0  0  0  0  0  0  0
    3.1163  -14.8419   26.5884 C   0  0  0  0  0  0  0  0  0  0  0  0
    1.9431  -14.9457   27.3095 N   0  0  0  0  0  0  0  0  0  0  0  0
    1.2651  -13.8871   26.9443 C   0  0  0  0  0  0  0  0  0  0  0  0
    1.8666  -13.0950   26.0208 O   0  0  0  0  0  0  0  0  0  0  0  0
    3.0828  -13.7053   25.8015 C   0  0  0  0  0  0  0  0  0  0  0  0
    4.0433  -13.1056   24.8882 C   0  0  0  0  0  0  0  0  0  0  0  0
    5.0877  -13.5889   24.7089 O   0  0  0  0  0  0  0  0  0  0  0  0
    3.4010  -11.8569   24.2587 N   0  0  0  0  0  0  0  0  0  0  0  0
    3.9487  -10.8769   23.3382 C   0  0  2  0  0  0  0  0  0  0  0  0
    4.4868  -11.5617   22.0905 C   0  0  0  0  0  0  0  0  0  0  0  0
    5.0326   -9.9935   23.9583 C   0  0  0  0  0  0  0  0  0  0  0  0
    5.3640   -9.0034   23.0857 F   0  0  0  0  0  0  0  0  0  0  0  0
    4.5393   -9.3653   25.0581 F   0  0  0  0  0  0  0  0  0  0  0  0
  1  2  1  0
  2  3  1  0
  3  4  2  0
  4  5  1  0
  5  6  1  0
  6  7  1  0
  7  8  2  0
  7  9  1  0
  9 10  1  0
 10 11  1  6
 10 12  1  0
 12 13  1  0
 12 14  1  0
  6  2  2  0
M  END
>  <inchikey>  (995) 
SPKLLZIIKQCQHC-UHFFFAOYSA-N

>  <tags>  (995) 
fragmenstein_placed,CpKRS_FrAncestor_bulkdock_iter2

>  <ref_pdb>  (995) 
x0502c

>  <energy_score>  (995) 
-16.44803

>  <distance_score>  (995) 
0.325151

>  <HIPPO Pose ID>  (995) 
57673

>  <ref_mols>  (995) 
x0504b

>  <smiles>  (995) 
Cc1ncoc1C(=O)N[C@H](C)C(F)F

>  <HIPPO Compound ID>  (995) 
37432

>  <alias>  (995) 
SPKLLZIIKQCQHC-RXMQYKEDSA-N-P49

>  <subsites>  (995) 


>  <placement_batch>  (995) 
CpKRS_FrAncestor_bulkdock_iter2

>  <name>  (995) 
SPKLLZIIKQCQHC-RXMQYKEDSA-N-P49

$$$$
HYTFDMQMWHCQOQ-YFKPBYRVSA-N-P47
     RDKit          3D

 13 13  0  0  0  0  0  0  0  0999 V2000
    4.3914    2.3002   44.1695 C   0  0  0  0  0  0  0  0  0  0  0  0
    3.6134    3.2621   44.9843 C   0  0  0  0  0  0  0  0  0  0  0  0
    3.3852    3.0624   46.3270 N   0  0  0  0  0  0  0  0  0  0  0  0
    2.6582    4.1015   46.6735 C   0  0  0  0  0  0  0  0  0  0  0  0
    2.3966    4.9910   45.6724 O   0  0  0  0  0  0  0  0  0  0  0  0
    3.0048    4.4343   44.5736 C   0  0  0  0  0  0  0  0  0  0  0  0
    2.9361    5.0459   43.2576 C   0  0  0  0  0  0  0  0  0  0  0  0
    3.3231    4.4488   42.3379 O   0  0  0  0  0  0  0  0  0  0  0  0
    2.3427    6.4562   43.3483 N   0  0  0  0  0  0  0  0  0  0  0  0
    2.1843    7.4792   42.3320 C   0  0  1  0  0  0  0  0  0  0  0  0
    1.6091    8.7747   42.8867 C   0  0  0  0  0  0  0  0  0  0  0  0
    3.5222    7.7316   41.6316 C   0  0  0  0  0  0  0  0  0  0  0  0
    4.4696    8.0244   42.5684 F   0  0  0  0  0  0  0  0  0  0  0  0
  1  2  1  0
  2  3  1  0
  3  4  2  0
  4  5  1  0
  5  6  1  0
  6  7  1  0
  7  8  2  0
  7  9  1  0
  9 10  1  0
 10 11  1  1
 10 12  1  0
 12 13  1  0
  6  2  2  0
M  END
>  <inchikey>  (996) 
HYTFDMQMWHCQOQ-UHFFFAOYSA-N

>  <tags>  (996) 
fragmenstein_placed,CpKRS_FrAncestor_bulkdock_iter2

>  <ref_pdb>  (996) 
x0502c

>  <energy_score>  (996) 
-5.373931

>  <distance_score>  (996) 
0.346905

>  <HIPPO Pose ID>  (996) 
57677

>  <ref_mols>  (996) 
x0504c

>  <smiles>  (996) 
Cc1ncoc1C(=O)N[C@@H](C)CF

>  <HIPPO Compound ID>  (996) 
37435

>  <alias>  (996) 
HYTFDMQMWHCQOQ-YFKPBYRVSA-N-P47

>  <subsites>  (996) 


>  <placement_batch>  (996) 
CpKRS_FrAncestor_bulkdock_iter2

>  <name>  (996) 
HYTFDMQMWHCQOQ-YFKPBYRVSA-N-P47

$$$$
LEWUIKFXXQFGMP-RXMQYKEDSA-N-P49
     RDKit          3D

 16 16  0  0  0  0  0  0  0  0999 V2000
    4.1991  -15.7662   26.7041 C   0  0  0  0  0  0  0  0  0  0  0  0
    3.0969  -14.7883   26.5819 C   0  0  0  0  0  0  0  0  0  0  0  0
    1.9462  -14.9112   27.3348 N   0  0  0  0  0  0  0  0  0  0  0  0
    1.2275  -13.8806   26.9666 C   0  0  0  0  0  0  0  0  0  0  0  0
    1.7814  -13.0901   26.0117 O   0  0  0  0  0  0  0  0  0  0  0  0
    3.0089  -13.6683   25.7747 C   0  0  0  0  0  0  0  0  0  0  0  0
    3.9289  -13.0576   24.8288 C   0  0  0  0  0  0  0  0  0  0  0  0
    4.9965  -13.4926   24.6657 O   0  0  0  0  0  0  0  0  0  0  0  0
    3.2212  -11.8714   24.1503 N   0  0  0  0  0  0  0  0  0  0  0  0
    3.7196  -10.8954   23.1799 C   0  0  2  0  0  0  0  0  0  0  0  0
    4.7485  -11.5072   22.2443 C   0  0  0  0  0  0  0  0  0  0  0  0
    4.9082  -10.6901   21.1678 F   0  0  0  0  0  0  0  0  0  0  0  0
    4.3165   -9.6399   23.8186 C   0  0  0  0  0  0  0  0  0  0  0  0
    3.3365   -8.9256   24.4297 F   0  0  0  0  0  0  0  0  0  0  0  0
    4.8729   -8.8090   22.9098 F   0  0  0  0  0  0  0  0  0  0  0  0
    5.2517   -9.9181   24.7476 F   0  0  0  0  0  0  0  0  0  0  0  0
  1  2  1  0
  2  3  1  0
  3  4  2  0
  4  5  1  0
  5  6  1  0
  6  7  1  0
  7  8  2  0
  7  9  1  0
  9 10  1  0
 10 11  1  1
 11 12  1  0
 10 13  1  0
 13 14  1  0
 13 15  1  0
 13 16  1  0
  6  2  2  0
M  END
>  <inchikey>  (997) 
LEWUIKFXXQFGMP-UHFFFAOYSA-N

>  <tags>  (997) 
fragmenstein_placed,CpKRS_FrAncestor_bulkdock_iter2

>  <ref_pdb>  (997) 
x0502c

>  <energy_score>  (997) 
-8.447004

>  <distance_score>  (997) 
0.408644

>  <HIPPO Pose ID>  (997) 
57682

>  <ref_mols>  (997) 
x0504b

>  <smiles>  (997) 
Cc1ncoc1C(=O)N[C@H](CF)C(F)(F)F

>  <HIPPO Compound ID>  (997) 
37451

>  <alias>  (997) 
LEWUIKFXXQFGMP-RXMQYKEDSA-N-P49

>  <subsites>  (997) 


>  <placement_batch>  (997) 
CpKRS_FrAncestor_bulkdock_iter2

>  <name>  (997) 
LEWUIKFXXQFGMP-RXMQYKEDSA-N-P49

$$$$
IWKGMOHVQZBDMU-UHFFFAOYSA-N-P46
     RDKit          3D

 16 17  0  0  0  0  0  0  0  0999 V2000
    3.9479  -15.9265   27.1256 C   0  0  0  0  0  0  0  0  0  0  0  0
    3.0635  -14.7591   26.8722 C   0  0  0  0  0  0  0  0  0  0  0  0
    1.9280  -14.6467   27.6642 N   0  0  0  0  0  0  0  0  0  0  0  0
    1.2204  -13.6199   27.2680 C   0  0  0  0  0  0  0  0  0  0  0  0
    1.8068  -12.7649   25.9221 S   0  0  0  0  0  0  0  0  0  0  0  0
    3.2314  -13.7489   25.9273 C   0  0  0  0  0  0  0  0  0  0  0  0
    4.3328  -13.5321   24.9280 C   0  0  2  0  0  0  0  0  0  0  0  0
    5.7473  -13.6888   25.4448 C   0  0  0  0  0  0  0  0  0  0  0  0
    4.1922  -12.2591   24.2706 N   0  0  0  0  0  0  0  0  0  0  0  0
    4.8417  -11.7216   22.9780 C   0  0  0  0  0  0  0  0  0  0  0  0
    5.5306  -12.2509   22.2037 O   0  0  0  0  0  0  0  0  0  0  0  0
    4.3743  -10.2738   22.8399 C   0  0  0  0  0  0  0  0  0  0  0  0
    4.7555   -9.4120   24.0563 C   0  0  0  0  0  0  0  0  0  0  0  0
    5.6760   -8.3280   23.5253 C   0  0  0  0  0  0  0  0  0  0  0  0
    5.2013   -8.1463   22.0995 C   0  0  0  0  0  0  0  0  0  0  0  0
    5.0121   -9.5727   21.6357 C   0  0  0  0  0  0  0  0  0  0  0  0
  1  2  1  0
  2  3  1  0
  3  4  2  0
  4  5  1  0
  5  6  1  0
  6  7  1  0
  7  8  1  1
  7  9  1  0
  9 10  1  0
 10 11  2  0
 10 12  1  0
 12 13  1  0
 13 14  1  0
 14 15  1  0
 15 16  1  0
  6  2  2  0
 16 12  1  0
M  END
>  <inchikey>  (998) 
IWKGMOHVQZBDMU-UHFFFAOYSA-N

>  <tags>  (998) 
fragmenstein_placed,CpKRS_FrAncestor_bulkdock_iter2

>  <ref_pdb>  (998) 
x0502c

>  <energy_score>  (998) 
-13.385414

>  <distance_score>  (998) 
0.533706

>  <HIPPO Pose ID>  (998) 
57696

>  <ref_mols>  (998) 
x0502c

>  <smiles>  (998) 
Cc1ncsc1C(C)NC(=O)C1CCCC1

>  <HIPPO Compound ID>  (998) 
37456

>  <alias>  (998) 
IWKGMOHVQZBDMU-UHFFFAOYSA-N-P46

>  <subsites>  (998) 


>  <placement_batch>  (998) 
CpKRS_FrAncestor_bulkdock_iter2

>  <name>  (998) 
IWKGMOHVQZBDMU-UHFFFAOYSA-N-P46

$$$$
POWPETCAOYWTPT-UHFFFAOYSA-N-P64
     RDKit          3D

 17 18  0  0  0  0  0  0  0  0999 V2000
    5.2274   -8.6941   21.0108 C   0  0  0  0  0  0  0  0  0  0  0  0
    5.2734   -8.6248   22.4654 C   0  0  0  0  0  0  0  0  0  0  0  0
    5.4248   -7.3524   22.9870 N   0  0  0  0  0  0  0  0  0  0  0  0
    5.7792   -7.4475   24.2415 C   0  0  0  0  0  0  0  0  0  0  0  0
    5.8714   -9.0277   24.8268 S   0  0  0  0  0  0  0  0  0  0  0  0
    5.2645   -9.6796   23.3670 C   0  0  0  0  0  0  0  0  0  0  0  0
    5.0758  -11.1621   23.1665 C   0  0  2  0  0  0  0  0  0  0  0  0
    4.2485  -11.5356   21.9514 C   0  0  0  0  0  0  0  0  0  0  0  0
    4.4415  -11.8482   24.2634 N   0  0  0  0  0  0  0  0  0  0  0  0
    4.6029  -13.2910   24.7648 C   0  0  0  0  0  0  0  0  0  0  0  0
    5.3296  -14.1321   24.4207 O   0  0  0  0  0  0  0  0  0  0  0  0
    3.5951  -13.6216   25.7634 C   0  0  0  0  0  0  0  0  0  0  0  0
    2.3491  -13.0807   26.0585 C   0  0  0  0  0  0  0  0  0  0  0  0
    1.7582  -13.8618   27.0876 C   0  0  0  0  0  0  0  0  0  0  0  0
    2.6518  -14.8541   27.3770 C   0  0  0  0  0  0  0  0  0  0  0  0
    2.6066  -16.1283   28.4950 Cl  0  0  0  0  0  0  0  0  0  0  0  0
    3.7464  -14.7260   26.5841 N   0  0  0  0  0  0  0  0  0  0  0  0
  1  2  1  0
  2  3  1  0
  3  4  2  0
  4  5  1  0
  5  6  1  0
  6  7  1  0
  7  8  1  6
  7  9  1  0
  9 10  1  0
 10 11  2  0
 10 12  1  0
 12 13  2  0
 13 14  1  0
 14 15  2  0
 15 16  1  0
 15 17  1  0
  6  2  2  0
 17 12  1  0
M  END
>  <inchikey>  (999) 
POWPETCAOYWTPT-UHFFFAOYSA-N

>  <tags>  (999) 
fragmenstein_placed,CpKRS_FrAncestor_bulkdock_iter2

>  <ref_pdb>  (999) 
x0502c

>  <energy_score>  (999) 
-37.584155

>  <distance_score>  (999) 
0.727025

>  <HIPPO Pose ID>  (999) 
57698

>  <ref_mols>  (999) 
x0787b

>  <smiles>  (999) 
Cc1ncsc1C(C)NC(=O)c1ccc(Cl)[nH]1

>  <HIPPO Compound ID>  (999) 
37457

>  <alias>  (999) 
POWPETCAOYWTPT-UHFFFAOYSA-N-P64

>  <subsites>  (999) 


>  <placement_batch>  (999) 
CpKRS_FrAncestor_bulkdock_iter2

>  <name>  (999) 
POWPETCAOYWTPT-UHFFFAOYSA-N-P64

$$$$
HXJVVWARALIHJU-UHFFFAOYSA-N-P44
     RDKit          3D

 15 16  0  0  0  0  0  0  0  0999 V2000
   -9.3929  -14.4854   49.2513 C   0  0  0  0  0  0  0  0  0  0  0  0
   -9.2385  -13.2722   48.4054 C   0  0  0  0  0  0  0  0  0  0  0  0
   -8.0855  -12.5178   48.5464 N   0  0  0  0  0  0  0  0  0  0  0  0
   -8.0965  -11.5236   47.6904 C   0  0  0  0  0  0  0  0  0  0  0  0
   -9.4893  -11.3937   46.7060 S   0  0  0  0  0  0  0  0  0  0  0  0
  -10.1513  -12.7742   47.4881 C   0  0  0  0  0  0  0  0  0  0  0  0
  -11.5246  -13.2443   47.1798 C   0  0  0  0  0  0  0  0  0  0  0  0
  -11.5526  -13.9790   45.9489 N   0  0  0  0  0  0  0  0  0  0  0  0
  -12.7471  -14.4163   45.0665 C   0  0  0  0  0  0  0  0  0  0  0  0
  -13.8848  -14.1805   45.1644 O   0  0  0  0  0  0  0  0  0  0  0  0
  -12.1639  -15.2580   43.9149 C   0  0  0  0  0  0  0  0  0  0  0  0
  -13.2366  -15.6276   42.8819 C   0  0  0  0  0  0  0  0  0  0  0  0
  -13.7525  -16.9799   43.3476 C   0  0  0  0  0  0  0  0  0  0  0  0
  -12.4829  -17.6904   43.7717 C   0  0  0  0  0  0  0  0  0  0  0  0
  -11.6205  -16.6063   44.4136 C   0  0  0  0  0  0  0  0  0  0  0  0
  1  2  1  0
  2  3  1  0
  3  4  2  0
  4  5  1  0
  5  6  1  0
  6  7  1  0
  7  8  1  0
  8  9  1  0
  9 10  2  0
  9 11  1  0
 11 12  1  0
 12 13  1  0
 13 14  1  0
 14 15  1  0
  6  2  2  0
 15 11  1  0
M  END
>  <inchikey>  (1000) 
HXJVVWARALIHJU-UHFFFAOYSA-N

>  <tags>  (1000) 
fragmenstein_placed,CpKRS_FrAncestor_bulkdock_iter2

>  <ref_pdb>  (1000) 
x0502c

>  <energy_score>  (1000) 
-22.634812

>  <distance_score>  (1000) 
0.626586

>  <HIPPO Pose ID>  (1000) 
57700

>  <ref_mols>  (1000) 
x0502b

>  <smiles>  (1000) 
Cc1ncsc1CNC(=O)C1CCCC1

>  <HIPPO Compound ID>  (1000) 
37458

>  <alias>  (1000) 
HXJVVWARALIHJU-UHFFFAOYSA-N-P44

>  <subsites>  (1000) 


>  <placement_batch>  (1000) 
CpKRS_FrAncestor_bulkdock_iter2

>  <name>  (1000) 
HXJVVWARALIHJU-UHFFFAOYSA-N-P44

$$$$
UWBXRUVIEWRZQO-UHFFFAOYSA-N-P64
     RDKit          3D

 16 17  0  0  0  0  0  0  0  0999 V2000
    4.8759   -8.7196   20.9685 C   0  0  0  0  0  0  0  0  0  0  0  0
    5.2442   -8.7379   22.3728 C   0  0  0  0  0  0  0  0  0  0  0  0
    5.5493   -7.5138   22.9393 N   0  0  0  0  0  0  0  0  0  0  0  0
    6.0240   -7.7144   24.1427 C   0  0  0  0  0  0  0  0  0  0  0  0
    6.0535   -9.3358   24.6275 S   0  0  0  0  0  0  0  0  0  0  0  0
    5.3269   -9.8485   23.1842 C   0  0  0  0  0  0  0  0  0  0  0  0
    5.0184  -11.2686   22.8495 C   0  0  0  0  0  0  0  0  0  0  0  0
    4.3039  -11.9633   23.8791 N   0  0  0  0  0  0  0  0  0  0  0  0
    4.5569  -13.3370   24.5157 C   0  0  0  0  0  0  0  0  0  0  0  0
    5.3396  -14.1570   24.2535 O   0  0  0  0  0  0  0  0  0  0  0  0
    3.5641  -13.6391   25.5452 C   0  0  0  0  0  0  0  0  0  0  0  0
    2.3381  -13.0793   25.8885 C   0  0  0  0  0  0  0  0  0  0  0  0
    1.7846  -13.8334   26.9592 C   0  0  0  0  0  0  0  0  0  0  0  0
    2.6818  -14.8259   27.2334 C   0  0  0  0  0  0  0  0  0  0  0  0
    2.6716  -16.0746   28.3819 Cl  0  0  0  0  0  0  0  0  0  0  0  0
    3.7449  -14.7199   26.3955 N   0  0  0  0  0  0  0  0  0  0  0  0
  1  2  1  0
  2  3  1  0
  3  4  2  0
  4  5  1  0
  5  6  1  0
  6  7  1  0
  7  8  1  0
  8  9  1  0
  9 10  2  0
  9 11  1  0
 11 12  2  0
 12 13  1  0
 13 14  2  0
 14 15  1  0
 14 16  1  0
  6  2  2  0
 16 11  1  0
M  END
>  <inchikey>  (1001) 
UWBXRUVIEWRZQO-UHFFFAOYSA-N

>  <tags>  (1001) 
fragmenstein_placed,CpKRS_FrAncestor_bulkdock_iter2

>  <ref_pdb>  (1001) 
x0502c

>  <energy_score>  (1001) 
-61.671638

>  <distance_score>  (1001) 
0.541218

>  <HIPPO Pose ID>  (1001) 
57703

>  <ref_mols>  (1001) 
x0787b

>  <smiles>  (1001) 
Cc1ncsc1CNC(=O)c1ccc(Cl)[nH]1

>  <HIPPO Compound ID>  (1001) 
37459

>  <alias>  (1001) 
UWBXRUVIEWRZQO-UHFFFAOYSA-N-P64

>  <subsites>  (1001) 


>  <placement_batch>  (1001) 
CpKRS_FrAncestor_bulkdock_iter2

>  <name>  (1001) 
UWBXRUVIEWRZQO-UHFFFAOYSA-N-P64

$$$$
YPODDNQCTYPIEZ-UHFFFAOYSA-N-P55
     RDKit          3D

 18 19  0  0  0  0  0  0  0  0999 V2000
    2.5040  -15.9268   28.9974 C   0  0  0  0  0  0  0  0  0  0  0  0
    2.6913  -15.1803   27.7418 C   0  0  0  0  0  0  0  0  0  0  0  0
    1.7126  -14.3805   27.2324 N   0  0  0  0  0  0  0  0  0  0  0  0
    2.1909  -13.6785   26.1528 C   0  0  0  0  0  0  0  0  0  0  0  0
    1.3470  -12.6095   25.5589 C   0  0  0  0  0  0  0  0  0  0  0  0
    3.4863  -14.1381   25.8887 C   0  0  0  0  0  0  0  0  0  0  0  0
    4.4521  -13.6952   24.8562 C   0  0  0  0  0  0  0  0  0  0  0  0
    5.5864  -13.6665   25.1006 O   0  0  0  0  0  0  0  0  0  0  0  0
    3.6997  -13.2476   23.6137 N   0  0  0  0  0  0  0  0  0  0  0  0
    4.1589  -12.5853   22.4455 C   0  0  0  0  0  0  0  0  0  0  0  0
    4.3815  -11.1476   22.7894 C   0  0  0  0  0  0  0  0  0  0  0  0
    4.0183  -10.5565   23.9179 N   0  0  0  0  0  0  0  0  0  0  0  0
    4.4532   -9.2556   23.9164 C   0  0  0  0  0  0  0  0  0  0  0  0
    5.0195   -8.8666   22.7388 C   0  0  0  0  0  0  0  0  0  0  0  0
    5.4915   -7.3117   22.3117 Cl  0  0  0  0  0  0  0  0  0  0  0  0
    5.1548  -10.1322   21.6422 S   0  0  0  0  0  0  0  0  0  0  0  0
    3.7905  -15.0881   26.9157 C   0  0  0  0  0  0  0  0  0  0  0  0
    5.0718  -15.8044   27.0945 C   0  0  0  0  0  0  0  0  0  0  0  0
  1  2  1  0
  2  3  1  0
  3  4  1  0
  4  5  1  0
  4  6  2  0
  6  7  1  0
  7  8  2  0
  7  9  1  0
  9 10  1  0
 10 11  1  0
 11 12  2  0
 12 13  1  0
 13 14  2  0
 14 15  1  0
 14 16  1  0
  6 17  1  0
 17 18  1  0
 17  2  2  0
 16 11  1  0
M  END
>  <inchikey>  (1002) 
YPODDNQCTYPIEZ-UHFFFAOYSA-N

>  <tags>  (1002) 
fragmenstein_placed,CpKRS_FrAncestor_bulkdock_iter2

>  <ref_pdb>  (1002) 
x0502c

>  <energy_score>  (1002) 
-27.501983

>  <distance_score>  (1002) 
0.642708

>  <HIPPO Pose ID>  (1002) 
57704

>  <ref_mols>  (1002) 
x0646a

>  <smiles>  (1002) 
Cc1[nH]c(C)c(C(=O)NCc2ncc(Cl)s2)c1C

>  <HIPPO Compound ID>  (1002) 
37460

>  <alias>  (1002) 
YPODDNQCTYPIEZ-UHFFFAOYSA-N-P55

>  <subsites>  (1002) 


>  <placement_batch>  (1002) 
CpKRS_FrAncestor_bulkdock_iter2

>  <name>  (1002) 
YPODDNQCTYPIEZ-UHFFFAOYSA-N-P55

$$$$
PVDARJMDGRTDBC-UHFFFAOYSA-N-P55
     RDKit          3D

 18 19  0  0  0  0  0  0  0  0999 V2000
    2.6443  -16.0482   28.7699 C   0  0  0  0  0  0  0  0  0  0  0  0
    2.8106  -15.2053   27.5688 C   0  0  0  0  0  0  0  0  0  0  0  0
    1.8155  -14.3885   27.1219 N   0  0  0  0  0  0  0  0  0  0  0  0
    2.2706  -13.6016   26.0899 C   0  0  0  0  0  0  0  0  0  0  0  0
    1.3956  -12.5095   25.5890 C   0  0  0  0  0  0  0  0  0  0  0  0
    3.5726  -14.0140   25.7798 C   0  0  0  0  0  0  0  0  0  0  0  0
    4.5258  -13.4778   24.7695 C   0  0  0  0  0  0  0  0  0  0  0  0
    5.6651  -13.5214   24.9910 O   0  0  0  0  0  0  0  0  0  0  0  0
    3.7688  -12.8507   23.6046 N   0  0  0  0  0  0  0  0  0  0  0  0
    4.2485  -12.2259   22.4170 C   0  0  0  0  0  0  0  0  0  0  0  0
    4.6253  -10.7971   22.6993 C   0  0  0  0  0  0  0  0  0  0  0  0
    4.5594  -10.1748   23.8625 N   0  0  0  0  0  0  0  0  0  0  0  0
    5.1145   -8.9154   23.7572 C   0  0  0  0  0  0  0  0  0  0  0  0
    5.2827   -7.9087   25.1223 Cl  0  0  0  0  0  0  0  0  0  0  0  0
    5.4667   -8.5380   22.4828 C   0  0  0  0  0  0  0  0  0  0  0  0
    5.2017   -9.8272   21.4034 S   0  0  0  0  0  0  0  0  0  0  0  0
    3.9024  -15.0331   26.7430 C   0  0  0  0  0  0  0  0  0  0  0  0
    5.1915  -15.7504   26.8836 C   0  0  0  0  0  0  0  0  0  0  0  0
  1  2  1  0
  2  3  1  0
  3  4  1  0
  4  5  1  0
  4  6  2  0
  6  7  1  0
  7  8  2  0
  7  9  1  0
  9 10  1  0
 10 11  1  0
 11 12  2  0
 12 13  1  0
 13 14  1  0
 13 15  2  0
 15 16  1  0
  6 17  1  0
 17 18  1  0
 17  2  2  0
 16 11  1  0
M  END
>  <inchikey>  (1003) 
PVDARJMDGRTDBC-UHFFFAOYSA-N

>  <tags>  (1003) 
fragmenstein_placed,CpKRS_FrAncestor_bulkdock_iter2

>  <ref_pdb>  (1003) 
x0502c

>  <energy_score>  (1003) 
-54.45078

>  <distance_score>  (1003) 
0.401725

>  <HIPPO Pose ID>  (1003) 
57705

>  <ref_mols>  (1003) 
x0646a

>  <smiles>  (1003) 
Cc1[nH]c(C)c(C(=O)NCc2nc(Cl)cs2)c1C

>  <HIPPO Compound ID>  (1003) 
37461

>  <alias>  (1003) 
PVDARJMDGRTDBC-UHFFFAOYSA-N-P55

>  <subsites>  (1003) 


>  <placement_batch>  (1003) 
CpKRS_FrAncestor_bulkdock_iter2

>  <name>  (1003) 
PVDARJMDGRTDBC-UHFFFAOYSA-N-P55

$$$$
NYQZXDXERRPDGZ-UHFFFAOYSA-N-P55
     RDKit          3D

 17 18  0  0  0  0  0  0  0  0999 V2000
    2.8096  -16.1922   28.6828 C   0  0  0  0  0  0  0  0  0  0  0  0
    2.9133  -15.2904   27.5183 C   0  0  0  0  0  0  0  0  0  0  0  0
    1.8828  -14.4790   27.1453 N   0  0  0  0  0  0  0  0  0  0  0  0
    2.2785  -13.6431   26.1287 C   0  0  0  0  0  0  0  0  0  0  0  0
    1.3607  -12.5574   25.6958 C   0  0  0  0  0  0  0  0  0  0  0  0
    3.5792  -14.0055   25.7600 C   0  0  0  0  0  0  0  0  0  0  0  0
    4.4743  -13.3850   24.7497 C   0  0  0  0  0  0  0  0  0  0  0  0
    5.6169  -13.3493   24.9534 O   0  0  0  0  0  0  0  0  0  0  0  0
    3.6551  -12.7930   23.6095 N   0  0  0  0  0  0  0  0  0  0  0  0
    4.0689  -12.1119   22.4273 C   0  0  0  0  0  0  0  0  0  0  0  0
    4.4206  -10.6876   22.7635 C   0  0  0  0  0  0  0  0  0  0  0  0
    4.0735  -10.0302   23.8580 N   0  0  0  0  0  0  0  0  0  0  0  0
    4.7044   -8.8040   23.8869 C   0  0  0  0  0  0  0  0  0  0  0  0
    5.4112   -8.4767   22.7537 C   0  0  0  0  0  0  0  0  0  0  0  0
    5.3437   -9.7679   21.6388 S   0  0  0  0  0  0  0  0  0  0  0  0
    3.9682  -15.0597   26.6591 C   0  0  0  0  0  0  0  0  0  0  0  0
    5.2720  -15.7622   26.7144 C   0  0  0  0  0  0  0  0  0  0  0  0
  1  2  1  0
  2  3  1  0
  3  4  1  0
  4  5  1  0
  4  6  2  0
  6  7  1  0
  7  8  2  0
  7  9  1  0
  9 10  1  0
 10 11  1  0
 11 12  2  0
 12 13  1  0
 13 14  2  0
 14 15  1  0
  6 16  1  0
 16 17  1  0
 16  2  2  0
 15 11  1  0
M  END
>  <inchikey>  (1004) 
NYQZXDXERRPDGZ-UHFFFAOYSA-N

>  <tags>  (1004) 
fragmenstein_placed,CpKRS_FrAncestor_bulkdock_iter2

>  <ref_pdb>  (1004) 
x0502c

>  <energy_score>  (1004) 
-18.903582

>  <distance_score>  (1004) 
0.528836

>  <HIPPO Pose ID>  (1004) 
57706

>  <ref_mols>  (1004) 
x0646a

>  <smiles>  (1004) 
Cc1[nH]c(C)c(C(=O)NCc2nccs2)c1C

>  <HIPPO Compound ID>  (1004) 
37462

>  <alias>  (1004) 
NYQZXDXERRPDGZ-UHFFFAOYSA-N-P55

>  <subsites>  (1004) 


>  <placement_batch>  (1004) 
CpKRS_FrAncestor_bulkdock_iter2

>  <name>  (1004) 
NYQZXDXERRPDGZ-UHFFFAOYSA-N-P55

$$$$
DVCWMYBJIIYLNI-UHFFFAOYSA-N-P55
     RDKit          3D

 18 19  0  0  0  0  0  0  0  0999 V2000
    2.8840  -16.2690   28.6057 C   0  0  0  0  0  0  0  0  0  0  0  0
    2.9207  -15.2969   27.4952 C   0  0  0  0  0  0  0  0  0  0  0  0
    1.8530  -14.5024   27.2055 N   0  0  0  0  0  0  0  0  0  0  0  0
    2.1793  -13.5960   26.2245 C   0  0  0  0  0  0  0  0  0  0  0  0
    1.1816  -12.5476   25.8858 C   0  0  0  0  0  0  0  0  0  0  0  0
    3.4879  -13.8707   25.8045 C   0  0  0  0  0  0  0  0  0  0  0  0
    4.3473  -13.1522   24.8175 C   0  0  0  0  0  0  0  0  0  0  0  0
    5.5021  -13.2162   24.9349 O   0  0  0  0  0  0  0  0  0  0  0  0
    3.4951  -12.3881   23.8039 N   0  0  0  0  0  0  0  0  0  0  0  0
    3.8796  -11.6121   22.6559 C   0  0  2  0  0  0  0  0  0  0  0  0
    5.0056  -12.3170   21.9269 C   0  0  0  0  0  0  0  0  0  0  0  0
    4.2909  -10.2168   23.0621 C   0  0  0  0  0  0  0  0  0  0  0  0
    4.0386   -9.6474   24.2266 N   0  0  0  0  0  0  0  0  0  0  0  0
    4.7297   -8.4588   24.3233 C   0  0  0  0  0  0  0  0  0  0  0  0
    5.3826   -8.0573   23.1819 C   0  0  0  0  0  0  0  0  0  0  0  0
    5.1435   -9.2022   21.9426 S   0  0  0  0  0  0  0  0  0  0  0  0
    3.9358  -14.9837   26.6150 C   0  0  0  0  0  0  0  0  0  0  0  0
    5.2530  -15.6704   26.5893 C   0  0  0  0  0  0  0  0  0  0  0  0
  1  2  1  0
  2  3  1  0
  3  4  1  0
  4  5  1  0
  4  6  2  0
  6  7  1  0
  7  8  2  0
  7  9  1  0
  9 10  1  0
 10 11  1  1
 10 12  1  0
 12 13  2  0
 13 14  1  0
 14 15  2  0
 15 16  1  0
  6 17  1  0
 17 18  1  0
 17  2  2  0
 16 12  1  0
M  END
>  <inchikey>  (1005) 
DVCWMYBJIIYLNI-UHFFFAOYSA-N

>  <tags>  (1005) 
fragmenstein_placed,CpKRS_FrAncestor_bulkdock_iter2

>  <ref_pdb>  (1005) 
x0502c

>  <energy_score>  (1005) 
-12.745553

>  <distance_score>  (1005) 
0.748694

>  <HIPPO Pose ID>  (1005) 
57707

>  <ref_mols>  (1005) 
x0646a

>  <smiles>  (1005) 
Cc1[nH]c(C)c(C(=O)NC(C)c2nccs2)c1C

>  <HIPPO Compound ID>  (1005) 
37463

>  <alias>  (1005) 
DVCWMYBJIIYLNI-UHFFFAOYSA-N-P55

>  <subsites>  (1005) 


>  <placement_batch>  (1005) 
CpKRS_FrAncestor_bulkdock_iter2

>  <name>  (1005) 
DVCWMYBJIIYLNI-UHFFFAOYSA-N-P55

$$$$
FRSGQLSLXBNCSK-UHFFFAOYSA-N-P13
     RDKit          3D

 16 17  0  0  0  0  0  0  0  0999 V2000
    4.5099  -15.8428   26.8028 C   0  0  0  0  0  0  0  0  0  0  0  0
    3.4543  -14.9031   26.3740 C   0  0  0  0  0  0  0  0  0  0  0  0
    2.1578  -14.9947   26.8082 N   0  0  0  0  0  0  0  0  0  0  0  0
    1.4562  -13.9588   26.2636 C   0  0  0  0  0  0  0  0  0  0  0  0
    2.2164  -13.2095   25.4996 N   0  0  0  0  0  0  0  0  0  0  0  0
    3.4828  -13.7910   25.5517 C   0  0  0  0  0  0  0  0  0  0  0  0
    4.6532  -13.2216   24.8574 C   0  0  0  0  0  0  0  0  0  0  0  0
    5.6823  -13.7655   24.8285 O   0  0  0  0  0  0  0  0  0  0  0  0
    4.2329  -11.8587   24.2943 N   0  0  0  0  0  0  0  0  0  0  0  0
    5.0101  -10.8317   23.6582 C   0  0  1  0  0  0  0  0  0  0  0  0
    5.0237  -11.0453   22.1493 C   0  0  0  0  0  0  0  0  0  0  0  0
    5.4549   -9.6996   21.6113 C   0  0  0  0  0  0  0  0  0  0  0  0
    4.6901   -8.7061   22.4654 C   0  0  0  0  0  0  0  0  0  0  0  0
    4.5521   -9.3553   23.8643 C   0  0  0  0  0  0  0  0  0  0  0  0
    5.4830   -8.6207   24.8428 C   0  0  0  0  0  0  0  0  0  0  0  0
    3.1072   -9.2204   24.3660 C   0  0  0  0  0  0  0  0  0  0  0  0
  1  2  1  0
  2  3  1  0
  3  4  1  0
  4  5  2  0
  5  6  1  0
  6  7  1  0
  7  8  2  0
  7  9  1  0
 10  9  1  1
 10 11  1  0
 11 12  1  0
 12 13  1  0
 13 14  1  0
 14 15  1  0
 14 16  1  0
  6  2  2  0
 14 10  1  0
M  END
>  <inchikey>  (1006) 
FRSGQLSLXBNCSK-UHFFFAOYSA-N

>  <tags>  (1006) 
fragmenstein_placed,CpKRS_FrAncestor_bulkdock_iter2

>  <ref_pdb>  (1006) 
x0502c

>  <energy_score>  (1006) 
-21.425957

>  <distance_score>  (1006) 
0.367047

>  <HIPPO Pose ID>  (1006) 
57712

>  <ref_mols>  (1006) 
x0421c

>  <smiles>  (1006) 
Cc1[nH]cnc1C(=O)NC1CCCC1(C)C

>  <HIPPO Compound ID>  (1006) 
37464

>  <alias>  (1006) 
FRSGQLSLXBNCSK-UHFFFAOYSA-N-P13

>  <subsites>  (1006) 


>  <placement_batch>  (1006) 
CpKRS_FrAncestor_bulkdock_iter2

>  <name>  (1006) 
FRSGQLSLXBNCSK-UHFFFAOYSA-N-P13

$$$$
BRSORMSCWACIOJ-UHFFFAOYSA-N-P13
     RDKit          3D

 14 15  0  0  0  0  0  0  0  0999 V2000
    4.4133  -15.8236   26.7482 C   0  0  0  0  0  0  0  0  0  0  0  0
    3.3636  -14.8682   26.3325 C   0  0  0  0  0  0  0  0  0  0  0  0
    2.0673  -14.9464   26.7681 N   0  0  0  0  0  0  0  0  0  0  0  0
    1.3786  -13.8964   26.2332 C   0  0  0  0  0  0  0  0  0  0  0  0
    2.1488  -13.1445   25.4814 N   0  0  0  0  0  0  0  0  0  0  0  0
    3.4063  -13.7427   25.5272 C   0  0  0  0  0  0  0  0  0  0  0  0
    4.5940  -13.1794   24.8588 C   0  0  0  0  0  0  0  0  0  0  0  0
    5.5916  -13.7753   24.7817 O   0  0  0  0  0  0  0  0  0  0  0  0
    4.2563  -11.7449   24.4303 N   0  0  0  0  0  0  0  0  0  0  0  0
    5.0409  -10.7751   23.7341 C   0  0  0  0  0  0  0  0  0  0  0  0
    4.6010   -9.3374   23.9583 C   0  0  0  0  0  0  0  0  0  0  0  0
    5.3658   -8.5930   22.8744 C   0  0  0  0  0  0  0  0  0  0  0  0
    5.4387   -9.5621   21.6952 C   0  0  0  0  0  0  0  0  0  0  0  0
    4.9909  -10.9240   22.2219 C   0  0  0  0  0  0  0  0  0  0  0  0
  1  2  1  0
  2  3  1  0
  3  4  1  0
  4  5  2  0
  5  6  1  0
  6  7  1  0
  7  8  2  0
  7  9  1  0
  9 10  1  0
 10 11  1  0
 11 12  1  0
 12 13  1  0
 13 14  1  0
  6  2  2  0
 14 10  1  0
M  END
>  <inchikey>  (1007) 
BRSORMSCWACIOJ-UHFFFAOYSA-N

>  <tags>  (1007) 
fragmenstein_placed,CpKRS_FrAncestor_bulkdock_iter2

>  <ref_pdb>  (1007) 
x0502c

>  <energy_score>  (1007) 
-6.519283

>  <distance_score>  (1007) 
0.250168

>  <HIPPO Pose ID>  (1007) 
57716

>  <ref_mols>  (1007) 
x0421c

>  <smiles>  (1007) 
Cc1[nH]cnc1C(=O)NC1CCCC1

>  <HIPPO Compound ID>  (1007) 
37465

>  <alias>  (1007) 
BRSORMSCWACIOJ-UHFFFAOYSA-N-P13

>  <subsites>  (1007) 


>  <placement_batch>  (1007) 
CpKRS_FrAncestor_bulkdock_iter2

>  <name>  (1007) 
BRSORMSCWACIOJ-UHFFFAOYSA-N-P13

$$$$
TWCHPTLIVAWNAG-UHFFFAOYSA-N-P11
     RDKit          3D

 16 17  0  0  0  0  0  0  0  0999 V2000
    4.1587  -16.0550   27.3537 C   0  0  0  0  0  0  0  0  0  0  0  0
    3.0851  -15.1731   26.8538 C   0  0  0  0  0  0  0  0  0  0  0  0
    1.7687  -15.3631   27.1727 N   0  0  0  0  0  0  0  0  0  0  0  0
    1.0493  -14.3619   26.5859 C   0  0  0  0  0  0  0  0  0  0  0  0
    1.8095  -13.5553   25.8824 N   0  0  0  0  0  0  0  0  0  0  0  0
    3.0929  -14.0932   25.9888 C   0  0  0  0  0  0  0  0  0  0  0  0
    4.2688  -13.5516   25.2895 C   0  0  0  0  0  0  0  0  0  0  0  0
    5.3125  -14.0590   25.3839 O   0  0  0  0  0  0  0  0  0  0  0  0
    3.8496  -12.2681   24.5634 N   0  0  0  0  0  0  0  0  0  0  0  0
    4.6289  -11.2966   23.8867 C   0  0  1  0  0  0  0  0  0  0  0  0
    4.9598  -11.6606   22.4504 C   0  0  0  0  0  0  0  0  0  0  0  0
    5.4783  -10.3540   21.8569 C   0  0  0  0  0  0  0  0  0  0  0  0
    5.1581   -9.2401   22.8725 C   0  0  0  0  0  0  0  0  0  0  0  0
    6.3386   -8.8326   23.7725 C   0  0  0  0  0  0  0  0  0  0  0  0
    4.7604   -8.0064   22.0922 C   0  0  0  0  0  0  0  0  0  0  0  0
    4.0751   -9.8805   23.7594 C   0  0  0  0  0  0  0  0  0  0  0  0
  1  2  1  0
  2  3  1  0
  3  4  1  0
  4  5  2  0
  5  6  1  0
  6  7  1  0
  7  8  2  0
  7  9  1  0
 10  9  1  6
 10 11  1  0
 11 12  1  0
 12 13  1  0
 13 14  1  0
 13 15  1  0
 13 16  1  0
  6  2  2  0
 16 10  1  0
M  END
>  <inchikey>  (1008) 
TWCHPTLIVAWNAG-UHFFFAOYSA-N

>  <tags>  (1008) 
fragmenstein_placed,CpKRS_FrAncestor_bulkdock_iter2

>  <ref_pdb>  (1008) 
x0502c

>  <energy_score>  (1008) 
-12.723719

>  <distance_score>  (1008) 
0.68325

>  <HIPPO Pose ID>  (1008) 
57718

>  <ref_mols>  (1008) 
x0421a

>  <smiles>  (1008) 
Cc1[nH]cnc1C(=O)NC1CCC(C)(C)C1

>  <HIPPO Compound ID>  (1008) 
37466

>  <alias>  (1008) 
TWCHPTLIVAWNAG-UHFFFAOYSA-N-P11

>  <subsites>  (1008) 


>  <placement_batch>  (1008) 
CpKRS_FrAncestor_bulkdock_iter2

>  <name>  (1008) 
TWCHPTLIVAWNAG-UHFFFAOYSA-N-P11

$$$$
JHRQAELVFONZJK-UHFFFAOYSA-N-P45
     RDKit          3D

 17 18  0  0  0  0  0  0  0  0999 V2000
    4.4391  -15.6656   27.1917 C   0  0  0  0  0  0  0  0  0  0  0  0
    3.3822  -14.7190   26.7762 C   0  0  0  0  0  0  0  0  0  0  0  0
    2.1456  -14.7180   27.3606 N   0  0  0  0  0  0  0  0  0  0  0  0
    1.3993  -13.7466   26.7649 C   0  0  0  0  0  0  0  0  0  0  0  0
    2.0550  -13.1447   25.8014 N   0  0  0  0  0  0  0  0  0  0  0  0
    3.3230  -13.7337   25.8001 C   0  0  0  0  0  0  0  0  0  0  0  0
    4.4081  -13.3193   24.8827 C   0  0  0  0  0  0  0  0  0  0  0  0
    5.4996  -13.6978   25.0340 O   0  0  0  0  0  0  0  0  0  0  0  0
    3.8264  -12.3430   23.8467 N   0  0  0  0  0  0  0  0  0  0  0  0
    4.4445  -11.6998   22.7204 C   0  0  0  0  0  0  0  0  0  0  0  0
    4.2469  -10.1828   22.6593 C   0  0  2  0  0  0  0  0  0  0  0  0
    5.0056   -9.5543   21.4928 C   0  0  0  0  0  0  0  0  0  0  0  0
    4.8738   -8.0772   21.7910 C   0  0  0  0  0  0  0  0  0  0  0  0
    5.1547   -7.9603   23.2665 C   0  0  0  0  0  0  0  0  0  0  0  0
    4.7213   -9.3167   23.8584 C   0  0  0  0  0  0  0  0  0  0  0  0
    3.5801   -9.1183   24.8465 C   0  0  0  0  0  0  0  0  0  0  0  0
    5.9545   -9.8671   24.5393 C   0  0  0  0  0  0  0  0  0  0  0  0
  1  2  1  0
  2  3  1  0
  3  4  1  0
  4  5  2  0
  5  6  1  0
  6  7  1  0
  7  8  2  0
  7  9  1  0
  9 10  1  0
 11 10  1  1
 11 12  1  0
 12 13  1  0
 13 14  1  0
 14 15  1  0
 15 16  1  0
 15 17  1  0
  6  2  2  0
 15 11  1  0
M  END
>  <inchikey>  (1009) 
JHRQAELVFONZJK-UHFFFAOYSA-N

>  <tags>  (1009) 
fragmenstein_placed,CpKRS_FrAncestor_bulkdock_iter2

>  <ref_pdb>  (1009) 
x0502c

>  <energy_score>  (1009) 
-21.37651

>  <distance_score>  (1009) 
0.580735

>  <HIPPO Pose ID>  (1009) 
57730

>  <ref_mols>  (1009) 
x0502a

>  <smiles>  (1009) 
Cc1[nH]cnc1C(=O)NCC1CCCC1(C)C

>  <HIPPO Compound ID>  (1009) 
37469

>  <alias>  (1009) 
JHRQAELVFONZJK-UHFFFAOYSA-N-P45

>  <subsites>  (1009) 


>  <placement_batch>  (1009) 
CpKRS_FrAncestor_bulkdock_iter2

>  <name>  (1009) 
JHRQAELVFONZJK-UHFFFAOYSA-N-P45

$$$$
DYAIVLMXSJNVIC-UHFFFAOYSA-N-P46
     RDKit          3D

 15 16  0  0  0  0  0  0  0  0999 V2000
    4.5503  -15.7162   27.1918 C   0  0  0  0  0  0  0  0  0  0  0  0
    3.4617  -14.7812   26.8509 C   0  0  0  0  0  0  0  0  0  0  0  0
    2.2750  -14.7379   27.5313 N   0  0  0  0  0  0  0  0  0  0  0  0
    1.4868  -13.7899   26.9479 C   0  0  0  0  0  0  0  0  0  0  0  0
    2.0728  -13.2422   25.9102 N   0  0  0  0  0  0  0  0  0  0  0  0
    3.3467  -13.8176   25.8663 C   0  0  0  0  0  0  0  0  0  0  0  0
    4.3756  -13.3892   24.8999 C   0  0  0  0  0  0  0  0  0  0  0  0
    5.4975  -13.6830   25.0051 O   0  0  0  0  0  0  0  0  0  0  0  0
    3.6804  -12.4658   23.8935 N   0  0  0  0  0  0  0  0  0  0  0  0
    4.1971  -11.7823   22.7473 C   0  0  0  0  0  0  0  0  0  0  0  0
    4.8984  -10.5125   23.1833 C   0  0  0  0  0  0  0  0  0  0  0  0
    4.0206   -9.6045   24.0356 C   0  0  0  0  0  0  0  0  0  0  0  0
    4.8372   -8.3333   24.0848 C   0  0  0  0  0  0  0  0  0  0  0  0
    5.4624   -8.2220   22.6954 C   0  0  0  0  0  0  0  0  0  0  0  0
    5.2952   -9.5901   22.0383 C   0  0  0  0  0  0  0  0  0  0  0  0
  1  2  1  0
  2  3  1  0
  3  4  1  0
  4  5  2  0
  5  6  1  0
  6  7  1  0
  7  8  2  0
  7  9  1  0
  9 10  1  0
 10 11  1  0
 11 12  1  0
 12 13  1  0
 13 14  1  0
 14 15  1  0
  6  2  2  0
 15 11  1  0
M  END
>  <inchikey>  (1010) 
DYAIVLMXSJNVIC-UHFFFAOYSA-N

>  <tags>  (1010) 
fragmenstein_placed,CpKRS_FrAncestor_bulkdock_iter2

>  <ref_pdb>  (1010) 
x0502c

>  <energy_score>  (1010) 
-21.323459

>  <distance_score>  (1010) 
0.361716

>  <HIPPO Pose ID>  (1010) 
57735

>  <ref_mols>  (1010) 
x0502c

>  <smiles>  (1010) 
Cc1[nH]cnc1C(=O)NCC1CCCC1

>  <HIPPO Compound ID>  (1010) 
37470

>  <alias>  (1010) 
DYAIVLMXSJNVIC-UHFFFAOYSA-N-P46

>  <subsites>  (1010) 


>  <placement_batch>  (1010) 
CpKRS_FrAncestor_bulkdock_iter2

>  <name>  (1010) 
DYAIVLMXSJNVIC-UHFFFAOYSA-N-P46

$$$$
CWNUVJKETSRQRY-UHFFFAOYSA-N-P55
     RDKit          3D

 16 17  0  0  0  0  0  0  0  0999 V2000
    4.3136  -16.1155   27.5922 C   0  0  0  0  0  0  0  0  0  0  0  0
    3.2513  -15.1862   27.1942 C   0  0  0  0  0  0  0  0  0  0  0  0
    2.0630  -15.0764   27.8608 N   0  0  0  0  0  0  0  0  0  0  0  0
    1.2913  -14.1699   27.1947 C   0  0  0  0  0  0  0  0  0  0  0  0
    1.9200  -13.6677   26.1577 N   0  0  0  0  0  0  0  0  0  0  0  0
    3.1632  -14.3001   26.1409 C   0  0  0  0  0  0  0  0  0  0  0  0
    4.1872  -14.0158   25.1223 C   0  0  0  0  0  0  0  0  0  0  0  0
    5.2992  -14.3411   25.2334 O   0  0  0  0  0  0  0  0  0  0  0  0
    3.4988  -13.1957   24.0328 N   0  0  0  0  0  0  0  0  0  0  0  0
    4.0027  -12.6803   22.8040 C   0  0  0  0  0  0  0  0  0  0  0  0
    4.2341  -11.2196   22.9931 C   0  0  0  0  0  0  0  0  0  0  0  0
    3.8260  -10.4032   24.0350 C   0  0  0  0  0  0  0  0  0  0  0  0
    4.2829   -9.0705   23.8991 C   0  0  0  0  0  0  0  0  0  0  0  0
    4.9313   -8.9195   22.7082 C   0  0  0  0  0  0  0  0  0  0  0  0
    5.4919   -7.4560   22.0767 Cl  0  0  0  0  0  0  0  0  0  0  0  0
    5.1035  -10.3353   21.8166 S   0  0  0  0  0  0  0  0  0  0  0  0
  1  2  1  0
  2  3  1  0
  3  4  1  0
  4  5  2  0
  5  6  1  0
  6  7  1  0
  7  8  2  0
  7  9  1  0
  9 10  1  0
 10 11  1  0
 11 12  2  0
 12 13  1  0
 13 14  2  0
 14 15  1  0
 14 16  1  0
  6  2  2  0
 16 11  1  0
M  END
>  <inchikey>  (1011) 
CWNUVJKETSRQRY-UHFFFAOYSA-N

>  <tags>  (1011) 
fragmenstein_placed,CpKRS_FrAncestor_bulkdock_iter2

>  <ref_pdb>  (1011) 
x0502c

>  <energy_score>  (1011) 
-9.349768

>  <distance_score>  (1011) 
0.844613

>  <HIPPO Pose ID>  (1011) 
57739

>  <ref_mols>  (1011) 
x0646a

>  <smiles>  (1011) 
Cc1[nH]cnc1C(=O)NCc1ccc(Cl)s1

>  <HIPPO Compound ID>  (1011) 
37472

>  <alias>  (1011) 
CWNUVJKETSRQRY-UHFFFAOYSA-N-P55

>  <subsites>  (1011) 


>  <placement_batch>  (1011) 
CpKRS_FrAncestor_bulkdock_iter2

>  <name>  (1011) 
CWNUVJKETSRQRY-UHFFFAOYSA-N-P55

$$$$
POPGIJBUQBEVLD-UHFFFAOYSA-N-P55
     RDKit          3D

 16 17  0  0  0  0  0  0  0  0999 V2000
    4.7217  -15.8949   27.1631 C   0  0  0  0  0  0  0  0  0  0  0  0
    3.6235  -14.9973   26.7748 C   0  0  0  0  0  0  0  0  0  0  0  0
    2.4048  -15.0077   27.3974 N   0  0  0  0  0  0  0  0  0  0  0  0
    1.6156  -14.0774   26.7873 C   0  0  0  0  0  0  0  0  0  0  0  0
    2.2472  -13.4708   25.8076 N   0  0  0  0  0  0  0  0  0  0  0  0
    3.5141  -14.0502   25.7728 C   0  0  0  0  0  0  0  0  0  0  0  0
    4.5362  -13.6968   24.7682 C   0  0  0  0  0  0  0  0  0  0  0  0
    5.6392  -14.0606   24.8572 O   0  0  0  0  0  0  0  0  0  0  0  0
    3.8371  -12.9063   23.6568 N   0  0  0  0  0  0  0  0  0  0  0  0
    4.3627  -12.3142   22.4655 C   0  0  0  0  0  0  0  0  0  0  0  0
    4.7249  -10.8826   22.6927 C   0  0  0  0  0  0  0  0  0  0  0  0
    4.8426  -10.1801   23.8732 C   0  0  0  0  0  0  0  0  0  0  0  0
    5.2650   -8.8406   23.6864 C   0  0  0  0  0  0  0  0  0  0  0  0
    5.5276   -7.7615   24.9753 Cl  0  0  0  0  0  0  0  0  0  0  0  0
    5.4206   -8.5347   22.3584 C   0  0  0  0  0  0  0  0  0  0  0  0
    5.1139   -9.8818   21.3624 S   0  0  0  0  0  0  0  0  0  0  0  0
  1  2  1  0
  2  3  1  0
  3  4  1  0
  4  5  2  0
  5  6  1  0
  6  7  1  0
  7  8  2  0
  7  9  1  0
  9 10  1  0
 10 11  1  0
 11 12  2  0
 12 13  1  0
 13 14  1  0
 13 15  2  0
 15 16  1  0
  6  2  2  0
 16 11  1  0
M  END
>  <inchikey>  (1012) 
POPGIJBUQBEVLD-UHFFFAOYSA-N

>  <tags>  (1012) 
fragmenstein_placed,CpKRS_FrAncestor_bulkdock_iter2

>  <ref_pdb>  (1012) 
x0502c

>  <energy_score>  (1012) 
-9.37524

>  <distance_score>  (1012) 
0.521566

>  <HIPPO Pose ID>  (1012) 
57740

>  <ref_mols>  (1012) 
x0646a

>  <smiles>  (1012) 
Cc1[nH]cnc1C(=O)NCc1cc(Cl)cs1

>  <HIPPO Compound ID>  (1012) 
37473

>  <alias>  (1012) 
POPGIJBUQBEVLD-UHFFFAOYSA-N-P55

>  <subsites>  (1012) 


>  <placement_batch>  (1012) 
CpKRS_FrAncestor_bulkdock_iter2

>  <name>  (1012) 
POPGIJBUQBEVLD-UHFFFAOYSA-N-P55

$$$$
DTJGDQOGLKBDCN-UHFFFAOYSA-N-P45
     RDKit          3D

 17 18  0  0  0  0  0  0  0  0999 V2000
    4.3202  -15.8524   27.3549 C   0  0  0  0  0  0  0  0  0  0  0  0
    3.2418  -14.8664   27.1500 C   0  0  0  0  0  0  0  0  0  0  0  0
    2.0587  -14.9227   27.8290 N   0  0  0  0  0  0  0  0  0  0  0  0
    1.2854  -13.8854   27.4054 C   0  0  0  0  0  0  0  0  0  0  0  0
    1.8742  -13.1704   26.4816 N   0  0  0  0  0  0  0  0  0  0  0  0
    3.1232  -13.7675   26.3161 C   0  0  0  0  0  0  0  0  0  0  0  0
    4.1141  -13.2794   25.3482 C   0  0  0  0  0  0  0  0  0  0  0  0
    5.0810  -13.8860   25.1101 O   0  0  0  0  0  0  0  0  0  0  0  0
    3.5686  -11.9823   24.7199 N   0  0  0  0  0  0  0  0  0  0  0  0
    4.0513  -11.2058   23.5958 C   0  0  0  0  0  0  0  0  0  0  0  0
    5.5480  -11.3575   23.4549 C   0  0  0  0  0  0  0  0  0  0  0  0
    3.4649  -11.9261   22.3976 C   0  0  0  0  0  0  0  0  0  0  0  0
    3.6352   -9.7168   23.6304 C   0  0  0  0  0  0  0  0  0  0  0  0
    4.3322   -8.9001   24.7190 C   0  0  0  0  0  0  0  0  0  0  0  0
    5.5162   -8.1866   24.0823 C   0  0  0  0  0  0  0  0  0  0  0  0
    5.2414   -8.1369   22.5922 C   0  0  0  0  0  0  0  0  0  0  0  0
    3.9471   -8.9025   22.3615 C   0  0  0  0  0  0  0  0  0  0  0  0
  1  2  1  0
  2  3  1  0
  3  4  1  0
  4  5  2  0
  5  6  1  0
  6  7  1  0
  7  8  2  0
  7  9  1  0
  9 10  1  0
 10 11  1  0
 10 12  1  0
 10 13  1  0
 13 14  1  0
 14 15  1  0
 15 16  1  0
 16 17  1  0
  6  2  2  0
 17 13  1  0
M  END
>  <inchikey>  (1013) 
DTJGDQOGLKBDCN-UHFFFAOYSA-N

>  <tags>  (1013) 
fragmenstein_placed,CpKRS_FrAncestor_bulkdock_iter2

>  <ref_pdb>  (1013) 
x0502c

>  <energy_score>  (1013) 
-4.68058

>  <distance_score>  (1013) 
0.680253

>  <HIPPO Pose ID>  (1013) 
57753

>  <ref_mols>  (1013) 
x0502a

>  <smiles>  (1013) 
Cc1[nH]cnc1C(=O)NC(C)(C)C1CCCC1

>  <HIPPO Compound ID>  (1013) 
37475

>  <alias>  (1013) 
DTJGDQOGLKBDCN-UHFFFAOYSA-N-P45

>  <subsites>  (1013) 


>  <placement_batch>  (1013) 
CpKRS_FrAncestor_bulkdock_iter2

>  <name>  (1013) 
DTJGDQOGLKBDCN-UHFFFAOYSA-N-P45

$$$$
JTGWWHUFCUESMO-QMMMGPOBSA-N-P45
     RDKit          3D

 16 17  0  0  0  0  0  0  0  0999 V2000
    4.2339  -15.9245   27.4375 C   0  0  0  0  0  0  0  0  0  0  0  0
    3.2529  -14.8919   27.0538 C   0  0  0  0  0  0  0  0  0  0  0  0
    1.9914  -14.8457   27.5759 N   0  0  0  0  0  0  0  0  0  0  0  0
    1.3459  -13.7827   27.0187 C   0  0  0  0  0  0  0  0  0  0  0  0
    2.0953  -13.1546   26.1457 N   0  0  0  0  0  0  0  0  0  0  0  0
    3.3139  -13.8351   26.1617 C   0  0  0  0  0  0  0  0  0  0  0  0
    4.4758  -13.4331   25.3486 C   0  0  0  0  0  0  0  0  0  0  0  0
    5.4861  -14.0102   25.4029 O   0  0  0  0  0  0  0  0  0  0  0  0
    4.0760  -12.2015   24.5230 N   0  0  0  0  0  0  0  0  0  0  0  0
    4.8035  -11.4743   23.5176 C   0  0  1  0  0  0  0  0  0  0  0  0
    4.8560  -12.3633   22.2906 C   0  0  0  0  0  0  0  0  0  0  0  0
    4.2298  -10.0901   23.2017 C   0  0  0  0  0  0  0  0  0  0  0  0
    4.3926   -9.1096   24.3772 C   0  0  0  0  0  0  0  0  0  0  0  0
    5.3814   -8.0554   23.9005 C   0  0  0  0  0  0  0  0  0  0  0  0
    5.0842   -7.9616   22.4190 C   0  0  0  0  0  0  0  0  0  0  0  0
    4.9567   -9.4146   22.0195 C   0  0  0  0  0  0  0  0  0  0  0  0
  1  2  1  0
  2  3  1  0
  3  4  1  0
  4  5  2  0
  5  6  1  0
  6  7  1  0
  7  8  2  0
  7  9  1  0
  9 10  1  0
 10 11  1  6
 10 12  1  0
 12 13  1  0
 13 14  1  0
 14 15  1  0
 15 16  1  0
  6  2  2  0
 16 12  1  0
M  END
>  <inchikey>  (1014) 
JTGWWHUFCUESMO-UHFFFAOYSA-N

>  <tags>  (1014) 
fragmenstein_placed,CpKRS_FrAncestor_bulkdock_iter2

>  <ref_pdb>  (1014) 
x0502c

>  <energy_score>  (1014) 
-20.593673

>  <distance_score>  (1014) 
0.550967

>  <HIPPO Pose ID>  (1014) 
57756

>  <ref_mols>  (1014) 
x0502a

>  <smiles>  (1014) 
Cc1[nH]cnc1C(=O)N[C@@H](C)C1CCCC1

>  <HIPPO Compound ID>  (1014) 
37471

>  <alias>  (1014) 
JTGWWHUFCUESMO-QMMMGPOBSA-N-P45

>  <subsites>  (1014) 


>  <placement_batch>  (1014) 
CpKRS_FrAncestor_bulkdock_iter2

>  <name>  (1014) 
JTGWWHUFCUESMO-QMMMGPOBSA-N-P45

$$$$
PONYCRDSHIJUTK-UHFFFAOYSA-N-P48
     RDKit          3D

 16 16  0  0  0  0  0  0  0  0999 V2000
    4.3912  -15.9111   27.2767 C   0  0  0  0  0  0  0  0  0  0  0  0
    3.2115  -15.0417   27.1224 C   0  0  0  0  0  0  0  0  0  0  0  0
    2.0725  -15.1832   27.8728 N   0  0  0  0  0  0  0  0  0  0  0  0
    1.1743  -14.2432   27.4556 C   0  0  0  0  0  0  0  0  0  0  0  0
    1.6686  -13.4976   26.4949 N   0  0  0  0  0  0  0  0  0  0  0  0
    2.9678  -13.9637   26.2956 C   0  0  0  0  0  0  0  0  0  0  0  0
    3.8734  -13.3608   25.3029 C   0  0  0  0  0  0  0  0  0  0  0  0
    4.9218  -13.7984   25.0520 O   0  0  0  0  0  0  0  0  0  0  0  0
    3.1083  -12.1934   24.6735 N   0  0  0  0  0  0  0  0  0  0  0  0
    3.4312  -11.3598   23.5201 C   0  0  0  0  0  0  0  0  0  0  0  0
    3.6108  -12.2955   22.3191 C   0  0  0  0  0  0  0  0  0  0  0  0
    2.2567  -10.3996   23.3192 C   0  0  0  0  0  0  0  0  0  0  0  0
    4.7093  -10.4962   23.6394 C   0  0  0  0  0  0  0  0  0  0  0  0
    5.7974  -11.1972   23.9910 F   0  0  0  0  0  0  0  0  0  0  0  0
    4.5518   -9.5046   24.5510 F   0  0  0  0  0  0  0  0  0  0  0  0
    4.9825   -9.8753   22.4577 F   0  0  0  0  0  0  0  0  0  0  0  0
  1  2  1  0
  2  3  1  0
  3  4  1  0
  4  5  2  0
  5  6  1  0
  6  7  1  0
  7  8  2  0
  7  9  1  0
  9 10  1  0
 10 11  1  0
 10 12  1  0
 10 13  1  0
 13 14  1  0
 13 15  1  0
 13 16  1  0
  6  2  2  0
M  END
>  <inchikey>  (1015) 
PONYCRDSHIJUTK-UHFFFAOYSA-N

>  <tags>  (1015) 
fragmenstein_placed,CpKRS_FrAncestor_bulkdock_iter2

>  <ref_pdb>  (1015) 
x0502c

>  <energy_score>  (1015) 
-10.011839

>  <distance_score>  (1015) 
0.59915

>  <HIPPO Pose ID>  (1015) 
57762

>  <ref_mols>  (1015) 
x0504a

>  <smiles>  (1015) 
Cc1[nH]cnc1C(=O)NC(C)(C)C(F)(F)F

>  <HIPPO Compound ID>  (1015) 
37477

>  <alias>  (1015) 
PONYCRDSHIJUTK-UHFFFAOYSA-N-P48

>  <subsites>  (1015) 


>  <placement_batch>  (1015) 
CpKRS_FrAncestor_bulkdock_iter2

>  <name>  (1015) 
PONYCRDSHIJUTK-UHFFFAOYSA-N-P48

$$$$
IVZCVLOKMZJCKQ-UHFFFAOYSA-N-P47
     RDKit          3D

 15 15  0  0  0  0  0  0  0  0999 V2000
    4.3039    2.3849   44.2103 C   0  0  0  0  0  0  0  0  0  0  0  0
    3.5391    3.3486   45.0410 C   0  0  0  0  0  0  0  0  0  0  0  0
    3.2663    3.1645   46.3714 N   0  0  0  0  0  0  0  0  0  0  0  0
    2.5550    4.2463   46.8056 C   0  0  0  0  0  0  0  0  0  0  0  0
    2.3657    5.1210   45.8440 N   0  0  0  0  0  0  0  0  0  0  0  0
    2.9274    4.5504   44.7126 C   0  0  0  0  0  0  0  0  0  0  0  0
    2.8517    5.1438   43.3658 C   0  0  0  0  0  0  0  0  0  0  0  0
    3.1208    4.5016   42.4340 O   0  0  0  0  0  0  0  0  0  0  0  0
    2.3974    6.6044   43.4686 N   0  0  0  0  0  0  0  0  0  0  0  0
    2.2660    7.6280   42.4427 C   0  0  1  0  0  0  0  0  0  0  0  0
    1.4908    8.8478   42.9308 C   0  0  0  0  0  0  0  0  0  0  0  0
    3.6349    8.0217   41.8474 C   0  0  0  0  0  0  0  0  0  0  0  0
    3.5480    8.8009   40.5535 C   0  0  0  0  0  0  0  0  0  0  0  0
    4.3988    6.9206   41.6325 F   0  0  0  0  0  0  0  0  0  0  0  0
    4.3349    8.7567   42.7483 F   0  0  0  0  0  0  0  0  0  0  0  0
  1  2  1  0
  2  3  1  0
  3  4  1  0
  4  5  2  0
  5  6  1  0
  6  7  1  0
  7  8  2  0
  7  9  1  0
  9 10  1  0
 10 11  1  1
 10 12  1  0
 12 13  1  0
 12 14  1  0
 12 15  1  0
  6  2  2  0
M  END
>  <inchikey>  (1016) 
IVZCVLOKMZJCKQ-UHFFFAOYSA-N

>  <tags>  (1016) 
fragmenstein_placed,CpKRS_FrAncestor_bulkdock_iter2

>  <ref_pdb>  (1016) 
x0502c

>  <energy_score>  (1016) 
-1.272738

>  <distance_score>  (1016) 
0.538137

>  <HIPPO Pose ID>  (1016) 
57767

>  <ref_mols>  (1016) 
x0504c

>  <smiles>  (1016) 
Cc1[nH]cnc1C(=O)NC(C)C(C)(F)F

>  <HIPPO Compound ID>  (1016) 
37478

>  <alias>  (1016) 
IVZCVLOKMZJCKQ-UHFFFAOYSA-N-P47

>  <subsites>  (1016) 


>  <placement_batch>  (1016) 
CpKRS_FrAncestor_bulkdock_iter2

>  <name>  (1016) 
IVZCVLOKMZJCKQ-UHFFFAOYSA-N-P47

$$$$
YEZIAUVTXUDIGP-UHFFFAOYSA-N-P47
     RDKit          3D

 15 15  0  0  0  0  0  0  0  0999 V2000
    4.2578    2.5679   44.0570 C   0  0  0  0  0  0  0  0  0  0  0  0
    3.4935    3.5376   44.8827 C   0  0  0  0  0  0  0  0  0  0  0  0
    3.1725    3.3156   46.1986 N   0  0  0  0  0  0  0  0  0  0  0  0
    2.4603    4.3920   46.6426 C   0  0  0  0  0  0  0  0  0  0  0  0
    2.3176    5.3001   45.7037 N   0  0  0  0  0  0  0  0  0  0  0  0
    2.9382    4.7758   44.5777 C   0  0  0  0  0  0  0  0  0  0  0  0
    2.9824    5.4706   43.2702 C   0  0  0  0  0  0  0  0  0  0  0  0
    3.4893    4.9586   42.3540 O   0  0  0  0  0  0  0  0  0  0  0  0
    2.3112    6.8518   43.3975 N   0  0  0  0  0  0  0  0  0  0  0  0
    2.2041    7.9564   42.4290 C   0  0  0  0  0  0  0  0  0  0  0  0
    1.6252    7.4196   41.1147 C   0  0  0  0  0  0  0  0  0  0  0  0
    1.2910    9.0732   42.9539 C   0  0  0  0  0  0  0  0  0  0  0  0
    3.5813    8.5708   42.1118 C   0  0  0  0  0  0  0  0  0  0  0  0
    4.5437    7.6212   42.0308 F   0  0  0  0  0  0  0  0  0  0  0  0
    3.5628    9.2059   40.9109 F   0  0  0  0  0  0  0  0  0  0  0  0
  1  2  1  0
  2  3  1  0
  3  4  1  0
  4  5  2  0
  5  6  1  0
  6  7  1  0
  7  8  2  0
  7  9  1  0
  9 10  1  0
 10 11  1  0
 10 12  1  0
 10 13  1  0
 13 14  1  0
 13 15  1  0
  6  2  2  0
M  END
>  <inchikey>  (1017) 
YEZIAUVTXUDIGP-UHFFFAOYSA-N

>  <tags>  (1017) 
fragmenstein_placed,CpKRS_FrAncestor_bulkdock_iter2

>  <ref_pdb>  (1017) 
x0502c

>  <energy_score>  (1017) 
-5.625701

>  <distance_score>  (1017) 
0.649402

>  <HIPPO Pose ID>  (1017) 
57770

>  <ref_mols>  (1017) 
x0504c

>  <smiles>  (1017) 
Cc1[nH]cnc1C(=O)NC(C)(C)C(F)F

>  <HIPPO Compound ID>  (1017) 
37479

>  <alias>  (1017) 
YEZIAUVTXUDIGP-UHFFFAOYSA-N-P47

>  <subsites>  (1017) 


>  <placement_batch>  (1017) 
CpKRS_FrAncestor_bulkdock_iter2

>  <name>  (1017) 
YEZIAUVTXUDIGP-UHFFFAOYSA-N-P47

$$$$
FYWNSJMMIGDYSH-UHFFFAOYSA-N-P49
     RDKit          3D

 14 14  0  0  0  0  0  0  0  0999 V2000
    4.4215  -15.8714   26.7305 C   0  0  0  0  0  0  0  0  0  0  0  0
    3.3117  -14.9148   26.5420 C   0  0  0  0  0  0  0  0  0  0  0  0
    2.1581  -14.9657   27.2791 N   0  0  0  0  0  0  0  0  0  0  0  0
    1.3573  -13.9410   26.8668 C   0  0  0  0  0  0  0  0  0  0  0  0
    1.9105  -13.2457   25.8994 N   0  0  0  0  0  0  0  0  0  0  0  0
    3.1615  -13.8256   25.6989 C   0  0  0  0  0  0  0  0  0  0  0  0
    4.1553  -13.3128   24.7312 C   0  0  0  0  0  0  0  0  0  0  0  0
    5.1922  -13.8278   24.6042 O   0  0  0  0  0  0  0  0  0  0  0  0
    3.5542  -12.0967   24.0145 N   0  0  0  0  0  0  0  0  0  0  0  0
    4.1381  -11.1911   23.0504 C   0  0  0  0  0  0  0  0  0  0  0  0
    4.3517   -9.7572   23.5495 C   0  0  0  0  0  0  0  0  0  0  0  0
    5.2910   -8.9677   22.6606 C   0  0  0  0  0  0  0  0  0  0  0  0
    4.8337   -9.7436   24.8167 F   0  0  0  0  0  0  0  0  0  0  0  0
    3.1573   -9.0957   23.5735 F   0  0  0  0  0  0  0  0  0  0  0  0
  1  2  1  0
  2  3  1  0
  3  4  1  0
  4  5  2  0
  5  6  1  0
  6  7  1  0
  7  8  2  0
  7  9  1  0
  9 10  1  0
 10 11  1  0
 11 12  1  0
 11 13  1  0
 11 14  1  0
  6  2  2  0
M  END
>  <inchikey>  (1018) 
FYWNSJMMIGDYSH-UHFFFAOYSA-N

>  <tags>  (1018) 
fragmenstein_placed,CpKRS_FrAncestor_bulkdock_iter2

>  <ref_pdb>  (1018) 
x0502c

>  <energy_score>  (1018) 
-1.450906

>  <distance_score>  (1018) 
0.399639

>  <HIPPO Pose ID>  (1018) 
57772

>  <ref_mols>  (1018) 
x0504b

>  <smiles>  (1018) 
Cc1[nH]cnc1C(=O)NCC(C)(F)F

>  <HIPPO Compound ID>  (1018) 
37480

>  <alias>  (1018) 
FYWNSJMMIGDYSH-UHFFFAOYSA-N-P49

>  <subsites>  (1018) 


>  <placement_batch>  (1018) 
CpKRS_FrAncestor_bulkdock_iter2

>  <name>  (1018) 
FYWNSJMMIGDYSH-UHFFFAOYSA-N-P49

$$$$
VGDYDZDQTMQIBS-UHFFFAOYSA-N-P47
     RDKit          3D

 14 14  0  0  0  0  0  0  0  0999 V2000
    4.4372    2.1762   44.2330 C   0  0  0  0  0  0  0  0  0  0  0  0
    3.6470    3.1716   44.9949 C   0  0  0  0  0  0  0  0  0  0  0  0
    3.2848    3.0338   46.3105 N   0  0  0  0  0  0  0  0  0  0  0  0
    2.5420    4.1265   46.6569 C   0  0  0  0  0  0  0  0  0  0  0  0
    2.4110    4.9590   45.6495 N   0  0  0  0  0  0  0  0  0  0  0  0
    3.0897    4.3730   44.5920 C   0  0  0  0  0  0  0  0  0  0  0  0
    3.2003    4.9794   43.2540 C   0  0  0  0  0  0  0  0  0  0  0  0
    3.8378    4.4772   42.4232 O   0  0  0  0  0  0  0  0  0  0  0  0
    2.4563    6.3118   43.2612 N   0  0  0  0  0  0  0  0  0  0  0  0
    2.2538    7.2831   42.2053 C   0  0  0  0  0  0  0  0  0  0  0  0
    3.5421    7.8821   41.6300 C   0  0  0  0  0  0  0  0  0  0  0  0
    3.2798    9.1264   41.1487 F   0  0  0  0  0  0  0  0  0  0  0  0
    4.4605    8.0441   42.6217 F   0  0  0  0  0  0  0  0  0  0  0  0
    4.3280    6.8481   40.1890 Br  0  0  0  0  0  0  0  0  0  0  0  0
  1  2  1  0
  2  3  1  0
  3  4  1  0
  4  5  2  0
  5  6  1  0
  6  7  1  0
  7  8  2  0
  7  9  1  0
  9 10  1  0
 10 11  1  0
 11 12  1  0
 11 13  1  0
 11 14  1  0
  6  2  2  0
M  END
>  <inchikey>  (1019) 
VGDYDZDQTMQIBS-UHFFFAOYSA-N

>  <tags>  (1019) 
fragmenstein_placed,CpKRS_FrAncestor_bulkdock_iter2

>  <ref_pdb>  (1019) 
x0502c

>  <energy_score>  (1019) 
-0.602441

>  <distance_score>  (1019) 
0.415979

>  <HIPPO Pose ID>  (1019) 
57779

>  <ref_mols>  (1019) 
x0504c

>  <smiles>  (1019) 
Cc1[nH]cnc1C(=O)NCC(F)(F)Br

>  <HIPPO Compound ID>  (1019) 
37482

>  <alias>  (1019) 
VGDYDZDQTMQIBS-UHFFFAOYSA-N-P47

>  <subsites>  (1019) 


>  <placement_batch>  (1019) 
CpKRS_FrAncestor_bulkdock_iter2

>  <name>  (1019) 
VGDYDZDQTMQIBS-UHFFFAOYSA-N-P47

$$$$
YJIVGVRDVIZXEN-UHFFFAOYSA-N-P48
     RDKit          3D

 14 14  0  0  0  0  0  0  0  0999 V2000
    4.3264  -15.8225   27.1922 C   0  0  0  0  0  0  0  0  0  0  0  0
    3.2318  -14.9014   26.8244 C   0  0  0  0  0  0  0  0  0  0  0  0
    2.0315  -14.8615   27.4875 N   0  0  0  0  0  0  0  0  0  0  0  0
    1.2455  -13.9292   26.8733 C   0  0  0  0  0  0  0  0  0  0  0  0
    1.8627  -13.3670   25.8587 N   0  0  0  0  0  0  0  0  0  0  0  0
    3.1344  -13.9327   25.8400 C   0  0  0  0  0  0  0  0  0  0  0  0
    4.1705  -13.5252   24.8704 C   0  0  0  0  0  0  0  0  0  0  0  0
    5.2376  -13.9900   24.8769 O   0  0  0  0  0  0  0  0  0  0  0  0
    3.5320  -12.5154   23.9094 N   0  0  0  0  0  0  0  0  0  0  0  0
    4.1021  -11.7846   22.7992 C   0  0  0  0  0  0  0  0  0  0  0  0
    4.3044  -10.2789   23.0033 C   0  0  0  0  0  0  0  0  0  0  0  0
    4.8842   -9.7478   21.8921 F   0  0  0  0  0  0  0  0  0  0  0  0
    5.1475  -10.0209   24.0318 F   0  0  0  0  0  0  0  0  0  0  0  0
    2.7744   -9.4022   23.2983 Cl  0  0  0  0  0  0  0  0  0  0  0  0
  1  2  1  0
  2  3  1  0
  3  4  1  0
  4  5  2  0
  5  6  1  0
  6  7  1  0
  7  8  2  0
  7  9  1  0
  9 10  1  0
 10 11  1  0
 11 12  1  0
 11 13  1  0
 11 14  1  0
  6  2  2  0
M  END
>  <inchikey>  (1020) 
YJIVGVRDVIZXEN-UHFFFAOYSA-N

>  <tags>  (1020) 
fragmenstein_placed,CpKRS_FrAncestor_bulkdock_iter2

>  <ref_pdb>  (1020) 
x0502c

>  <energy_score>  (1020) 
-0.694582

>  <distance_score>  (1020) 
0.428836

>  <HIPPO Pose ID>  (1020) 
57780

>  <ref_mols>  (1020) 
x0504a

>  <smiles>  (1020) 
Cc1[nH]cnc1C(=O)NCC(F)(F)Cl

>  <HIPPO Compound ID>  (1020) 
37483

>  <alias>  (1020) 
YJIVGVRDVIZXEN-UHFFFAOYSA-N-P48

>  <subsites>  (1020) 


>  <placement_batch>  (1020) 
CpKRS_FrAncestor_bulkdock_iter2

>  <name>  (1020) 
YJIVGVRDVIZXEN-UHFFFAOYSA-N-P48

$$$$
WLRGRAUMPBMNBI-UHFFFAOYSA-N-P49
     RDKit          3D

 14 14  0  0  0  0  0  0  0  0999 V2000
    4.4461  -15.8745   26.7952 C   0  0  0  0  0  0  0  0  0  0  0  0
    3.3202  -14.9447   26.5737 C   0  0  0  0  0  0  0  0  0  0  0  0
    2.1486  -15.0232   27.2799 N   0  0  0  0  0  0  0  0  0  0  0  0
    1.3362  -14.0156   26.8478 C   0  0  0  0  0  0  0  0  0  0  0  0
    1.8976  -13.3078   25.8940 N   0  0  0  0  0  0  0  0  0  0  0  0
    3.1653  -13.8618   25.7249 C   0  0  0  0  0  0  0  0  0  0  0  0
    4.1652  -13.3254   24.7785 C   0  0  0  0  0  0  0  0  0  0  0  0
    5.2061  -13.8290   24.6461 O   0  0  0  0  0  0  0  0  0  0  0  0
    3.5491  -12.1151   24.0678 N   0  0  0  0  0  0  0  0  0  0  0  0
    4.1204  -11.1999   23.1019 C   0  0  0  0  0  0  0  0  0  0  0  0
    4.3526   -9.7715   23.5926 C   0  0  0  0  0  0  0  0  0  0  0  0
    3.1972   -9.0577   23.5986 F   0  0  0  0  0  0  0  0  0  0  0  0
    4.8818   -9.7189   24.8325 F   0  0  0  0  0  0  0  0  0  0  0  0
    5.2007   -9.1126   22.7652 F   0  0  0  0  0  0  0  0  0  0  0  0
  1  2  1  0
  2  3  1  0
  3  4  1  0
  4  5  2  0
  5  6  1  0
  6  7  1  0
  7  8  2  0
  7  9  1  0
  9 10  1  0
 10 11  1  0
 11 12  1  0
 11 13  1  0
 11 14  1  0
  6  2  2  0
M  END
>  <inchikey>  (1021) 
WLRGRAUMPBMNBI-UHFFFAOYSA-N

>  <tags>  (1021) 
fragmenstein_placed,CpKRS_FrAncestor_bulkdock_iter2

>  <ref_pdb>  (1021) 
x0502c

>  <energy_score>  (1021) 
-14.907184

>  <distance_score>  (1021) 
0.344675

>  <HIPPO Pose ID>  (1021) 
57784

>  <ref_mols>  (1021) 
x0504b

>  <smiles>  (1021) 
Cc1[nH]cnc1C(=O)NCC(F)(F)F

>  <HIPPO Compound ID>  (1021) 
37484

>  <alias>  (1021) 
WLRGRAUMPBMNBI-UHFFFAOYSA-N-P49

>  <subsites>  (1021) 


>  <placement_batch>  (1021) 
CpKRS_FrAncestor_bulkdock_iter2

>  <name>  (1021) 
WLRGRAUMPBMNBI-UHFFFAOYSA-N-P49

$$$$
MJBHXMCXWHHPSR-UHFFFAOYSA-N-P48
     RDKit          3D

 13 13  0  0  0  0  0  0  0  0999 V2000
    4.5340  -15.7156   26.9897 C   0  0  0  0  0  0  0  0  0  0  0  0
    3.3097  -14.9123   26.7913 C   0  0  0  0  0  0  0  0  0  0  0  0
    2.1877  -15.0627   27.5670 N   0  0  0  0  0  0  0  0  0  0  0  0
    1.2450  -14.1822   27.1205 C   0  0  0  0  0  0  0  0  0  0  0  0
    1.6855  -13.4795   26.1026 N   0  0  0  0  0  0  0  0  0  0  0  0
    2.9975  -13.9035   25.8967 C   0  0  0  0  0  0  0  0  0  0  0  0
    3.8566  -13.3164   24.8487 C   0  0  0  0  0  0  0  0  0  0  0  0
    4.9550  -13.6591   24.6752 O   0  0  0  0  0  0  0  0  0  0  0  0
    3.0202  -12.2573   24.1233 N   0  0  0  0  0  0  0  0  0  0  0  0
    3.3239  -11.4568   22.9654 C   0  0  0  0  0  0  0  0  0  0  0  0
    4.5661  -10.5812   23.0950 C   0  0  0  0  0  0  0  0  0  0  0  0
    4.2999   -9.5270   23.9162 F   0  0  0  0  0  0  0  0  0  0  0  0
    4.8565  -10.0317   21.8837 F   0  0  0  0  0  0  0  0  0  0  0  0
  1  2  1  0
  2  3  1  0
  3  4  1  0
  4  5  2  0
  5  6  1  0
  6  7  1  0
  7  8  2  0
  7  9  1  0
  9 10  1  0
 10 11  1  0
 11 12  1  0
 11 13  1  0
  6  2  2  0
M  END
>  <inchikey>  (1022) 
MJBHXMCXWHHPSR-UHFFFAOYSA-N

>  <tags>  (1022) 
fragmenstein_placed,CpKRS_FrAncestor_bulkdock_iter2

>  <ref_pdb>  (1022) 
x0502c

>  <energy_score>  (1022) 
-4.646702

>  <distance_score>  (1022) 
0.389789

>  <HIPPO Pose ID>  (1022) 
57786

>  <ref_mols>  (1022) 
x0504a

>  <smiles>  (1022) 
Cc1[nH]cnc1C(=O)NCC(F)F

>  <HIPPO Compound ID>  (1022) 
37485

>  <alias>  (1022) 
MJBHXMCXWHHPSR-UHFFFAOYSA-N-P48

>  <subsites>  (1022) 


>  <placement_batch>  (1022) 
CpKRS_FrAncestor_bulkdock_iter2

>  <name>  (1022) 
MJBHXMCXWHHPSR-UHFFFAOYSA-N-P48

$$$$
MUAJMBAGXYXKOU-MRVPVSSYSA-N-P49
     RDKit          3D

 17 17  0  0  0  0  0  0  0  0999 V2000
    4.4503  -16.0736   26.4960 C   0  0  0  0  0  0  0  0  0  0  0  0
    3.3294  -15.1187   26.6069 C   0  0  0  0  0  0  0  0  0  0  0  0
    2.1916  -15.3849   27.3209 N   0  0  0  0  0  0  0  0  0  0  0  0
    1.3675  -14.3029   27.2010 C   0  0  0  0  0  0  0  0  0  0  0  0
    1.8894  -13.3667   26.4419 N   0  0  0  0  0  0  0  0  0  0  0  0
    3.1544  -13.8427   26.1005 C   0  0  0  0  0  0  0  0  0  0  0  0
    4.1179  -13.0796   25.2810 C   0  0  0  0  0  0  0  0  0  0  0  0
    5.1339  -13.5451   24.9501 O   0  0  0  0  0  0  0  0  0  0  0  0
    3.4766  -11.7273   24.9226 N   0  0  0  0  0  0  0  0  0  0  0  0
    3.9125  -10.6850   23.9913 C   0  0  2  0  0  0  0  0  0  0  0  0
    4.3994  -11.3750   22.7038 C   0  0  0  0  0  0  0  0  0  0  0  0
    4.8500  -10.3982   21.6195 C   0  0  0  0  0  0  0  0  0  0  0  0
    3.2888  -12.3023   22.2220 C   0  0  0  0  0  0  0  0  0  0  0  0
    4.9436   -9.6699   24.4957 C   0  0  0  0  0  0  0  0  0  0  0  0
    4.5707   -9.1317   25.6745 F   0  0  0  0  0  0  0  0  0  0  0  0
    5.0501   -8.6281   23.6290 F   0  0  0  0  0  0  0  0  0  0  0  0
    6.1740  -10.1938   24.6475 F   0  0  0  0  0  0  0  0  0  0  0  0
  1  2  1  0
  2  3  1  0
  3  4  1  0
  4  5  2  0
  5  6  1  0
  6  7  1  0
  7  8  2  0
  7  9  1  0
 10  9  1  1
 10 11  1  0
 11 12  1  0
 11 13  1  0
 10 14  1  0
 14 15  1  0
 14 16  1  0
 14 17  1  0
  6  2  2  0
M  END
>  <inchikey>  (1023) 
MUAJMBAGXYXKOU-UHFFFAOYSA-N

>  <tags>  (1023) 
fragmenstein_placed,CpKRS_FrAncestor_bulkdock_iter2

>  <ref_pdb>  (1023) 
x0502c

>  <energy_score>  (1023) 
-5.27052

>  <distance_score>  (1023) 
0.651485

>  <HIPPO Pose ID>  (1023) 
57790

>  <ref_mols>  (1023) 
x0504b

>  <smiles>  (1023) 
Cc1[nH]cnc1C(=O)N[C@H](C(C)C)C(F)(F)F

>  <HIPPO Compound ID>  (1023) 
37476

>  <alias>  (1023) 
MUAJMBAGXYXKOU-MRVPVSSYSA-N-P49

>  <subsites>  (1023) 


>  <placement_batch>  (1023) 
CpKRS_FrAncestor_bulkdock_iter2

>  <name>  (1023) 
MUAJMBAGXYXKOU-MRVPVSSYSA-N-P49

$$$$
SGWAXLWOHQZWQG-YFKPBYRVSA-N-P47
     RDKit          3D

 14 14  0  0  0  0  0  0  0  0999 V2000
    4.3775    2.2932   44.2352 C   0  0  0  0  0  0  0  0  0  0  0  0
    3.5822    3.2760   45.0108 C   0  0  0  0  0  0  0  0  0  0  0  0
    3.2532    3.1269   46.3335 N   0  0  0  0  0  0  0  0  0  0  0  0
    2.5051    4.2083   46.7026 C   0  0  0  0  0  0  0  0  0  0  0  0
    2.3385    5.0454   45.7038 N   0  0  0  0  0  0  0  0  0  0  0  0
    2.9890    4.4676   44.6238 C   0  0  0  0  0  0  0  0  0  0  0  0
    3.0285    5.0604   43.2743 C   0  0  0  0  0  0  0  0  0  0  0  0
    3.5651    4.5080   42.4036 O   0  0  0  0  0  0  0  0  0  0  0  0
    2.3137    6.4123   43.3000 N   0  0  0  0  0  0  0  0  0  0  0  0
    2.1845    7.4320   42.2723 C   0  0  1  0  0  0  0  0  0  0  0  0
    1.6485    8.7461   42.8266 C   0  0  0  0  0  0  0  0  0  0  0  0
    3.5206    7.6460   41.5479 C   0  0  0  0  0  0  0  0  0  0  0  0
    4.4798    8.0083   42.4447 F   0  0  0  0  0  0  0  0  0  0  0  0
    3.4210    8.6565   40.6478 F   0  0  0  0  0  0  0  0  0  0  0  0
  1  2  1  0
  2  3  1  0
  3  4  1  0
  4  5  2  0
  5  6  1  0
  6  7  1  0
  7  8  2  0
  7  9  1  0
  9 10  1  0
 10 11  1  1
 10 12  1  0
 12 13  1  0
 12 14  1  0
  6  2  2  0
M  END
>  <inchikey>  (1024) 
SGWAXLWOHQZWQG-UHFFFAOYSA-N

>  <tags>  (1024) 
fragmenstein_placed,CpKRS_FrAncestor_bulkdock_iter2

>  <ref_pdb>  (1024) 
x0502c

>  <energy_score>  (1024) 
-3.083757

>  <distance_score>  (1024) 
0.375381

>  <HIPPO Pose ID>  (1024) 
57797

>  <ref_mols>  (1024) 
x0504c

>  <smiles>  (1024) 
Cc1[nH]cnc1C(=O)N[C@@H](C)C(F)F

>  <HIPPO Compound ID>  (1024) 
37481

>  <alias>  (1024) 
SGWAXLWOHQZWQG-YFKPBYRVSA-N-P47

>  <subsites>  (1024) 


>  <placement_batch>  (1024) 
CpKRS_FrAncestor_bulkdock_iter2

>  <name>  (1024) 
SGWAXLWOHQZWQG-YFKPBYRVSA-N-P47

$$$$
LOJTXEORMBPRAR-UHFFFAOYSA-N-P45
     RDKit          3D

 17 18  0  0  0  0  0  0  0  0999 V2000
    4.2466  -15.7541   27.0519 C   0  0  0  0  0  0  0  0  0  0  0  0
    3.2152  -14.7479   26.7044 C   0  0  0  0  0  0  0  0  0  0  0  0
    1.9770  -14.8044   27.2746 N   0  0  0  0  0  0  0  0  0  0  0  0
    1.1479  -13.8140   26.8960 N   0  0  0  0  0  0  0  0  0  0  0  0
    1.8976  -13.1258   26.0253 C   0  0  0  0  0  0  0  0  0  0  0  0
    3.1911  -13.6779   25.8177 C   0  0  0  0  0  0  0  0  0  0  0  0
    4.3017  -13.2464   24.9415 C   0  0  0  0  0  0  0  0  0  0  0  0
    5.3886  -13.5739   25.2069 O   0  0  0  0  0  0  0  0  0  0  0  0
    3.7805  -12.3332   23.8124 N   0  0  0  0  0  0  0  0  0  0  0  0
    4.4767  -11.7095   22.7186 C   0  0  0  0  0  0  0  0  0  0  0  0
    4.2743  -10.1932   22.6435 C   0  0  2  0  0  0  0  0  0  0  0  0
    5.0444   -9.5648   21.4862 C   0  0  0  0  0  0  0  0  0  0  0  0
    4.8921   -8.0878   21.7758 C   0  0  0  0  0  0  0  0  0  0  0  0
    5.1534   -7.9610   23.2540 C   0  0  0  0  0  0  0  0  0  0  0  0
    4.7230   -9.3177   23.8467 C   0  0  0  0  0  0  0  0  0  0  0  0
    3.5674   -9.1237   24.8199 C   0  0  0  0  0  0  0  0  0  0  0  0
    5.9503   -9.8544   24.5489 C   0  0  0  0  0  0  0  0  0  0  0  0
  1  2  1  0
  2  3  1  0
  3  4  1  0
  4  5  2  0
  5  6  1  0
  6  7  1  0
  7  8  2  0
  7  9  1  0
  9 10  1  0
 11 10  1  1
 11 12  1  0
 12 13  1  0
 13 14  1  0
 14 15  1  0
 15 16  1  0
 15 17  1  0
  6  2  2  0
 15 11  1  0
M  END
>  <inchikey>  (1025) 
LOJTXEORMBPRAR-UHFFFAOYSA-N

>  <tags>  (1025) 
fragmenstein_placed,CpKRS_FrAncestor_bulkdock_iter2

>  <ref_pdb>  (1025) 
x0502c

>  <energy_score>  (1025) 
-8.818635

>  <distance_score>  (1025) 
0.578327

>  <HIPPO Pose ID>  (1025) 
57804

>  <ref_mols>  (1025) 
x0502a

>  <smiles>  (1025) 
Cc1[nH]ncc1C(=O)NCC1CCCC1(C)C

>  <HIPPO Compound ID>  (1025) 
37487

>  <alias>  (1025) 
LOJTXEORMBPRAR-UHFFFAOYSA-N-P45

>  <subsites>  (1025) 


>  <placement_batch>  (1025) 
CpKRS_FrAncestor_bulkdock_iter2

>  <name>  (1025) 
LOJTXEORMBPRAR-UHFFFAOYSA-N-P45

$$$$
RQENURXRTRJFQI-UHFFFAOYSA-N-P44
     RDKit          3D

 19 20  0  0  0  0  0  0  0  0999 V2000
   -9.7023  -14.4305   49.0456 C   0  0  0  0  0  0  0  0  0  0  0  0
   -9.3306  -13.2717   48.1975 C   0  0  0  0  0  0  0  0  0  0  0  0
   -8.1833  -12.5649   48.4584 N   0  0  0  0  0  0  0  0  0  0  0  0
   -8.0308  -11.4717   47.6986 N   0  0  0  0  0  0  0  0  0  0  0  0
   -9.0770  -11.5230   46.8733 C   0  0  0  0  0  0  0  0  0  0  0  0
   -9.9211  -12.6381   47.1099 C   0  0  0  0  0  0  0  0  0  0  0  0
  -11.1575  -12.9234   46.3748 C   0  0  0  0  0  0  0  0  0  0  0  0
  -11.7355  -12.0384   45.8893 O   0  0  0  0  0  0  0  0  0  0  0  0
  -11.4705  -14.4261   46.3919 N   0  0  0  0  0  0  0  0  0  0  0  0
  -12.6353  -15.1640   45.8858 C   0  0  2  0  0  0  0  0  0  0  0  0
  -12.5679  -15.2322   44.3352 C   0  0  0  0  0  0  0  0  0  0  0  0
  -13.8227  -15.7259   43.6118 C   0  0  0  0  0  0  0  0  0  0  0  0
  -13.7704  -17.2355   43.7657 C   0  0  0  0  0  0  0  0  0  0  0  0
  -12.2897  -17.5788   43.6724 C   0  0  0  0  0  0  0  0  0  0  0  0
  -11.5280  -16.2683   43.8784 C   0  0  0  0  0  0  0  0  0  0  0  0
  -13.9668  -14.5945   46.4285 C   0  0  0  0  0  0  0  0  0  0  0  0
  -14.3342  -13.4487   45.8225 F   0  0  0  0  0  0  0  0  0  0  0  0
  -13.8849  -14.3584   47.7609 F   0  0  0  0  0  0  0  0  0  0  0  0
  -14.9735  -15.4874   46.2632 F   0  0  0  0  0  0  0  0  0  0  0  0
  1  2  1  0
  2  3  1  0
  3  4  1  0
  4  5  2  0
  5  6  1  0
  6  7  1  0
  7  8  2  0
  7  9  1  0
 10  9  1  6
 10 11  1  0
 11 12  1  0
 12 13  1  0
 13 14  1  0
 14 15  1  0
 10 16  1  0
 16 17  1  0
 16 18  1  0
 16 19  1  0
  6  2  2  0
 15 11  1  0
M  END
>  <inchikey>  (1026) 
RQENURXRTRJFQI-UHFFFAOYSA-N

>  <tags>  (1026) 
fragmenstein_placed,CpKRS_FrAncestor_bulkdock_iter2

>  <ref_pdb>  (1026) 
x0502c

>  <energy_score>  (1026) 
-14.646913

>  <distance_score>  (1026) 
0.293496

>  <HIPPO Pose ID>  (1026) 
57808

>  <ref_mols>  (1026) 
x0502b

>  <smiles>  (1026) 
Cc1[nH]ncc1C(=O)NC(C1CCCC1)C(F)(F)F

>  <HIPPO Compound ID>  (1026) 
37488

>  <alias>  (1026) 
RQENURXRTRJFQI-UHFFFAOYSA-N-P44

>  <subsites>  (1026) 


>  <placement_batch>  (1026) 
CpKRS_FrAncestor_bulkdock_iter2

>  <name>  (1026) 
RQENURXRTRJFQI-UHFFFAOYSA-N-P44

$$$$
WHEJTDPQEPBNOE-UHFFFAOYSA-N-P45
     RDKit          3D

 16 17  0  0  0  0  0  0  0  0999 V2000
    4.2616  -15.8331   27.0964 C   0  0  0  0  0  0  0  0  0  0  0  0
    3.2386  -14.8205   26.7521 C   0  0  0  0  0  0  0  0  0  0  0  0
    1.9911  -14.8759   27.3023 N   0  0  0  0  0  0  0  0  0  0  0  0
    1.1768  -13.8702   26.9297 N   0  0  0  0  0  0  0  0  0  0  0  0
    1.9441  -13.1765   26.0797 C   0  0  0  0  0  0  0  0  0  0  0  0
    3.2329  -13.7420   25.8797 C   0  0  0  0  0  0  0  0  0  0  0  0
    4.3496  -13.2989   25.0237 C   0  0  0  0  0  0  0  0  0  0  0  0
    5.4429  -13.5778   25.3138 O   0  0  0  0  0  0  0  0  0  0  0  0
    3.8143  -12.4317   23.8705 N   0  0  0  0  0  0  0  0  0  0  0  0
    4.5036  -11.8033   22.7772 C   0  0  0  0  0  0  0  0  0  0  0  0
    4.2693  -10.2962   22.7448 C   0  0  2  0  0  0  0  0  0  0  0  0
    5.0312   -9.6006   21.6178 C   0  0  0  0  0  0  0  0  0  0  0  0
    5.1339   -8.1694   22.1061 C   0  0  0  0  0  0  0  0  0  0  0  0
    5.5430   -8.3472   23.5541 C   0  0  0  0  0  0  0  0  0  0  0  0
    4.7293   -9.5591   24.0245 C   0  0  1  0  0  0  0  0  0  0  0  0
    3.5242   -9.1060   24.8306 C   0  0  0  0  0  0  0  0  0  0  0  0
  1  2  1  0
  2  3  1  0
  3  4  1  0
  4  5  2  0
  5  6  1  0
  6  7  1  0
  7  8  2  0
  7  9  1  0
  9 10  1  0
 11 10  1  1
 11 12  1  0
 12 13  1  0
 13 14  1  0
 14 15  1  0
 15 16  1  6
  6  2  2  0
 15 11  1  0
M  END
>  <inchikey>  (1027) 
WHEJTDPQEPBNOE-UHFFFAOYSA-N

>  <tags>  (1027) 
fragmenstein_placed,CpKRS_FrAncestor_bulkdock_iter2

>  <ref_pdb>  (1027) 
x0502c

>  <energy_score>  (1027) 
-19.320008

>  <distance_score>  (1027) 
0.42827

>  <HIPPO Pose ID>  (1027) 
57810

>  <ref_mols>  (1027) 
x0502a

>  <smiles>  (1027) 
Cc1[nH]ncc1C(=O)NCC1CCCC1C

>  <HIPPO Compound ID>  (1027) 
37489

>  <alias>  (1027) 
WHEJTDPQEPBNOE-UHFFFAOYSA-N-P45

>  <subsites>  (1027) 


>  <placement_batch>  (1027) 
CpKRS_FrAncestor_bulkdock_iter2

>  <name>  (1027) 
WHEJTDPQEPBNOE-UHFFFAOYSA-N-P45

$$$$
OIAQKEPMQYDQDE-UHFFFAOYSA-N-P44
     RDKit          3D

 15 16  0  0  0  0  0  0  0  0999 V2000
   -9.6988  -14.4522   48.9906 C   0  0  0  0  0  0  0  0  0  0  0  0
   -9.3571  -13.2590   48.1789 C   0  0  0  0  0  0  0  0  0  0  0  0
   -8.1885  -12.5753   48.4001 N   0  0  0  0  0  0  0  0  0  0  0  0
   -8.0719  -11.4487   47.6821 N   0  0  0  0  0  0  0  0  0  0  0  0
   -9.1689  -11.4529   46.9231 C   0  0  0  0  0  0  0  0  0  0  0  0
  -10.0065  -12.5706   47.1612 C   0  0  0  0  0  0  0  0  0  0  0  0
  -11.2898  -12.8234   46.5011 C   0  0  0  0  0  0  0  0  0  0  0  0
  -11.9421  -11.9175   46.1701 O   0  0  0  0  0  0  0  0  0  0  0  0
  -11.5529  -14.3332   46.3906 N   0  0  0  0  0  0  0  0  0  0  0  0
  -12.6332  -15.0519   45.7631 C   0  0  0  0  0  0  0  0  0  0  0  0
  -12.4175  -15.2122   44.2514 C   0  0  0  0  0  0  0  0  0  0  0  0
  -13.7027  -15.6117   43.5248 C   0  0  0  0  0  0  0  0  0  0  0  0
  -13.7922  -17.1145   43.7299 C   0  0  0  0  0  0  0  0  0  0  0  0
  -12.3501  -17.5961   43.6623 C   0  0  0  0  0  0  0  0  0  0  0  0
  -11.4713  -16.3729   43.9267 C   0  0  0  0  0  0  0  0  0  0  0  0
  1  2  1  0
  2  3  1  0
  3  4  1  0
  4  5  2  0
  5  6  1  0
  6  7  1  0
  7  8  2  0
  7  9  1  0
  9 10  1  0
 10 11  1  0
 11 12  1  0
 12 13  1  0
 13 14  1  0
 14 15  1  0
  6  2  2  0
 15 11  1  0
M  END
>  <inchikey>  (1028) 
OIAQKEPMQYDQDE-UHFFFAOYSA-N

>  <tags>  (1028) 
fragmenstein_placed,CpKRS_FrAncestor_bulkdock_iter2

>  <ref_pdb>  (1028) 
x0502c

>  <energy_score>  (1028) 
-4.292466

>  <distance_score>  (1028) 
0.333368

>  <HIPPO Pose ID>  (1028) 
57814

>  <ref_mols>  (1028) 
x0502b

>  <smiles>  (1028) 
Cc1[nH]ncc1C(=O)NCC1CCCC1

>  <HIPPO Compound ID>  (1028) 
37490

>  <alias>  (1028) 
OIAQKEPMQYDQDE-UHFFFAOYSA-N-P44

>  <subsites>  (1028) 


>  <placement_batch>  (1028) 
CpKRS_FrAncestor_bulkdock_iter2

>  <name>  (1028) 
OIAQKEPMQYDQDE-UHFFFAOYSA-N-P44

$$$$
HJHQEBJCKSHZBT-UHFFFAOYSA-N-P45
     RDKit          3D

 16 17  0  0  0  0  0  0  0  0999 V2000
    4.2447  -15.8533   27.1497 C   0  0  0  0  0  0  0  0  0  0  0  0
    3.2247  -14.8343   26.8165 C   0  0  0  0  0  0  0  0  0  0  0  0
    1.9908  -14.8611   27.3983 N   0  0  0  0  0  0  0  0  0  0  0  0
    1.1748  -13.8617   27.0116 N   0  0  0  0  0  0  0  0  0  0  0  0
    1.9316  -13.1939   26.1324 C   0  0  0  0  0  0  0  0  0  0  0  0
    3.2121  -13.7736   25.9241 C   0  0  0  0  0  0  0  0  0  0  0  0
    4.3144  -13.3632   25.0362 C   0  0  0  0  0  0  0  0  0  0  0  0
    5.4161  -13.5861   25.3405 O   0  0  0  0  0  0  0  0  0  0  0  0
    3.7485  -12.6309   23.8082 N   0  0  0  0  0  0  0  0  0  0  0  0
    4.4182  -11.9379   22.7463 C   0  0  0  0  0  0  0  0  0  0  0  0
    4.2578  -10.4316   22.8687 C   0  0  2  0  0  0  0  0  0  0  0  0
    4.9866   -9.6566   21.7758 C   0  0  0  0  0  0  0  0  0  0  0  0
    5.0511   -8.2315   22.3082 C   0  0  0  0  0  0  0  0  0  0  0  0
    4.8905   -8.3395   23.8273 C   0  0  2  0  0  0  0  0  0  0  0  0
    5.9488   -7.5710   24.5936 C   0  0  0  0  0  0  0  0  0  0  0  0
    4.8753   -9.8355   24.1308 C   0  0  0  0  0  0  0  0  0  0  0  0
  1  2  1  0
  2  3  1  0
  3  4  1  0
  4  5  2  0
  5  6  1  0
  6  7  1  0
  7  8  2  0
  7  9  1  0
  9 10  1  0
 11 10  1  6
 11 12  1  0
 12 13  1  0
 13 14  1  0
 14 15  1  1
 14 16  1  0
  6  2  2  0
 16 11  1  0
M  END
>  <inchikey>  (1029) 
HJHQEBJCKSHZBT-UHFFFAOYSA-N

>  <tags>  (1029) 
fragmenstein_placed,CpKRS_FrAncestor_bulkdock_iter2

>  <ref_pdb>  (1029) 
x0502c

>  <energy_score>  (1029) 
-11.902895

>  <distance_score>  (1029) 
0.417231

>  <HIPPO Pose ID>  (1029) 
57816

>  <ref_mols>  (1029) 
x0502a

>  <smiles>  (1029) 
Cc1[nH]ncc1C(=O)NCC1CCC(C)C1

>  <HIPPO Compound ID>  (1029) 
37491

>  <alias>  (1029) 
HJHQEBJCKSHZBT-UHFFFAOYSA-N-P45

>  <subsites>  (1029) 


>  <placement_batch>  (1029) 
CpKRS_FrAncestor_bulkdock_iter2

>  <name>  (1029) 
HJHQEBJCKSHZBT-UHFFFAOYSA-N-P45

$$$$
GPZOOQMFSYVQDY-UHFFFAOYSA-N-P44
     RDKit          3D

 15 16  0  0  0  0  0  0  0  0999 V2000
   -9.6698  -14.4210   49.0192 C   0  0  0  0  0  0  0  0  0  0  0  0
   -9.2997  -13.2335   48.2113 C   0  0  0  0  0  0  0  0  0  0  0  0
   -8.1401  -12.5480   48.4722 N   0  0  0  0  0  0  0  0  0  0  0  0
   -7.9994  -11.4231   47.7559 N   0  0  0  0  0  0  0  0  0  0  0  0
   -9.0648  -11.4341   46.9530 C   0  0  0  0  0  0  0  0  0  0  0  0
   -9.9066  -12.5542   47.1619 C   0  0  0  0  0  0  0  0  0  0  0  0
  -11.1563  -12.8153   46.4452 C   0  0  0  0  0  0  0  0  0  0  0  0
  -11.8121  -11.9139   46.1090 O   0  0  0  0  0  0  0  0  0  0  0  0
  -11.3779  -14.3267   46.2751 N   0  0  0  0  0  0  0  0  0  0  0  0
  -12.5004  -15.0537   45.7386 C   0  0  0  0  0  0  0  0  0  0  0  0
  -12.4178  -15.1723   44.2085 C   0  0  2  0  0  0  0  0  0  0  0  0
  -13.7782  -15.4553   43.5646 C   0  0  0  0  0  0  0  0  0  0  0  0
  -14.1367  -16.9036   43.8456 C   0  0  0  0  0  0  0  0  0  0  0  0
  -12.5741  -17.7986   43.7062 S   0  0  0  0  0  0  0  0  0  0  0  0
  -11.5171  -16.3245   43.7709 C   0  0  0  0  0  0  0  0  0  0  0  0
  1  2  1  0
  2  3  1  0
  3  4  1  0
  4  5  2  0
  5  6  1  0
  6  7  1  0
  7  8  2  0
  7  9  1  0
  9 10  1  0
 11 10  1  1
 11 12  1  0
 12 13  1  0
 13 14  1  0
 14 15  1  0
  6  2  2  0
 15 11  1  0
M  END
>  <inchikey>  (1030) 
GPZOOQMFSYVQDY-UHFFFAOYSA-N

>  <tags>  (1030) 
fragmenstein_placed,CpKRS_FrAncestor_bulkdock_iter2

>  <ref_pdb>  (1030) 
x0502c

>  <energy_score>  (1030) 
-17.932962

>  <distance_score>  (1030) 
0.404364

>  <HIPPO Pose ID>  (1030) 
57820

>  <ref_mols>  (1030) 
x0502b

>  <smiles>  (1030) 
Cc1[nH]ncc1C(=O)NCC1CCSC1

>  <HIPPO Compound ID>  (1030) 
37492

>  <alias>  (1030) 
GPZOOQMFSYVQDY-UHFFFAOYSA-N-P44

>  <subsites>  (1030) 


>  <placement_batch>  (1030) 
CpKRS_FrAncestor_bulkdock_iter2

>  <name>  (1030) 
GPZOOQMFSYVQDY-UHFFFAOYSA-N-P44

$$$$
GZDJJMFHWLAFLF-UHFFFAOYSA-N-P44
     RDKit          3D

 16 17  0  0  0  0  0  0  0  0999 V2000
   -9.6279  -14.4221   49.0743 C   0  0  0  0  0  0  0  0  0  0  0  0
   -9.2842  -13.2551   48.2260 C   0  0  0  0  0  0  0  0  0  0  0  0
   -8.1424  -12.5328   48.4629 N   0  0  0  0  0  0  0  0  0  0  0  0
   -8.0261  -11.4322   47.7058 N   0  0  0  0  0  0  0  0  0  0  0  0
   -9.0910  -11.4966   46.9046 C   0  0  0  0  0  0  0  0  0  0  0  0
   -9.9073  -12.6272   47.1542 C   0  0  0  0  0  0  0  0  0  0  0  0
  -11.1559  -12.9410   46.4564 C   0  0  0  0  0  0  0  0  0  0  0  0
  -11.8352  -12.0665   46.0964 O   0  0  0  0  0  0  0  0  0  0  0  0
  -11.3538  -14.4620   46.3568 N   0  0  0  0  0  0  0  0  0  0  0  0
  -12.4823  -15.2363   45.8744 C   0  0  2  0  0  0  0  0  0  0  0  0
  -12.5719  -16.5509   46.6413 C   0  0  0  0  0  0  0  0  0  0  0  0
  -12.4354  -15.3329   44.3302 C   0  0  0  0  0  0  0  0  0  0  0  0
  -11.5069  -16.4067   43.7632 C   0  0  0  0  0  0  0  0  0  0  0  0
  -12.3658  -17.6420   43.5189 C   0  0  0  0  0  0  0  0  0  0  0  0
  -13.8163  -17.1817   43.5303 C   0  0  0  0  0  0  0  0  0  0  0  0
  -13.7818  -15.6694   43.6841 C   0  0  0  0  0  0  0  0  0  0  0  0
  1  2  1  0
  2  3  1  0
  3  4  1  0
  4  5  2  0
  5  6  1  0
  6  7  1  0
  7  8  2  0
  7  9  1  0
  9 10  1  0
 10 11  1  1
 10 12  1  0
 12 13  1  0
 13 14  1  0
 14 15  1  0
 15 16  1  0
  6  2  2  0
 16 12  1  0
M  END
>  <inchikey>  (1031) 
GZDJJMFHWLAFLF-UHFFFAOYSA-N

>  <tags>  (1031) 
fragmenstein_placed,CpKRS_FrAncestor_bulkdock_iter2

>  <ref_pdb>  (1031) 
x0502c

>  <energy_score>  (1031) 
-14.212342

>  <distance_score>  (1031) 
0.293611

>  <HIPPO Pose ID>  (1031) 
57826

>  <ref_mols>  (1031) 
x0502b

>  <smiles>  (1031) 
Cc1[nH]ncc1C(=O)NC(C)C1CCCC1

>  <HIPPO Compound ID>  (1031) 
37495

>  <alias>  (1031) 
GZDJJMFHWLAFLF-UHFFFAOYSA-N-P44

>  <subsites>  (1031) 


>  <placement_batch>  (1031) 
CpKRS_FrAncestor_bulkdock_iter2

>  <name>  (1031) 
GZDJJMFHWLAFLF-UHFFFAOYSA-N-P44

$$$$
CMYXJTFCZQIRSS-UHFFFAOYSA-N-P44
     RDKit          3D

 17 18  0  0  0  0  0  0  0  0999 V2000
   -9.6685  -14.4231   49.0801 C   0  0  0  0  0  0  0  0  0  0  0  0
   -9.3170  -13.2785   48.2043 C   0  0  0  0  0  0  0  0  0  0  0  0
   -8.1813  -12.5479   48.4490 N   0  0  0  0  0  0  0  0  0  0  0  0
   -8.0459  -11.4690   47.6663 N   0  0  0  0  0  0  0  0  0  0  0  0
   -9.0857  -11.5614   46.8361 C   0  0  0  0  0  0  0  0  0  0  0  0
   -9.9142  -12.6832   47.0983 C   0  0  0  0  0  0  0  0  0  0  0  0
  -11.1446  -13.0028   46.3642 C   0  0  0  0  0  0  0  0  0  0  0  0
  -11.7132  -12.1397   45.8259 O   0  0  0  0  0  0  0  0  0  0  0  0
  -11.4785  -14.5016   46.4733 N   0  0  0  0  0  0  0  0  0  0  0  0
  -12.6536  -15.2528   46.0149 C   0  0  0  0  0  0  0  0  0  0  0  0
  -13.9068  -14.5143   46.5281 C   0  0  0  0  0  0  0  0  0  0  0  0
  -12.6208  -16.6343   46.6892 C   0  0  0  0  0  0  0  0  0  0  0  0
  -12.6356  -15.2947   44.4494 C   0  0  0  0  0  0  0  0  0  0  0  0
  -13.9047  -15.7770   43.7366 C   0  0  0  0  0  0  0  0  0  0  0  0
  -13.7465  -17.2768   43.5566 C   0  0  0  0  0  0  0  0  0  0  0  0
  -12.2481  -17.5326   43.5111 C   0  0  0  0  0  0  0  0  0  0  0  0
  -11.5626  -16.2116   43.8476 C   0  0  0  0  0  0  0  0  0  0  0  0
  1  2  1  0
  2  3  1  0
  3  4  1  0
  4  5  2  0
  5  6  1  0
  6  7  1  0
  7  8  2  0
  7  9  1  0
  9 10  1  0
 10 11  1  0
 10 12  1  0
 10 13  1  0
 13 14  1  0
 14 15  1  0
 15 16  1  0
 16 17  1  0
  6  2  2  0
 17 13  1  0
M  END
>  <inchikey>  (1032) 
CMYXJTFCZQIRSS-UHFFFAOYSA-N

>  <tags>  (1032) 
fragmenstein_placed,CpKRS_FrAncestor_bulkdock_iter2

>  <ref_pdb>  (1032) 
x0502c

>  <energy_score>  (1032) 
-6.625629

>  <distance_score>  (1032) 
0.302427

>  <HIPPO Pose ID>  (1032) 
57832

>  <ref_mols>  (1032) 
x0502b

>  <smiles>  (1032) 
Cc1[nH]ncc1C(=O)NC(C)(C)C1CCCC1

>  <HIPPO Compound ID>  (1032) 
37497

>  <alias>  (1032) 
CMYXJTFCZQIRSS-UHFFFAOYSA-N-P44

>  <subsites>  (1032) 


>  <placement_batch>  (1032) 
CpKRS_FrAncestor_bulkdock_iter2

>  <name>  (1032) 
CMYXJTFCZQIRSS-UHFFFAOYSA-N-P44

$$$$
BAKSPJAYRJNEFA-UHFFFAOYSA-N-P13
     RDKit          3D

 14 15  0  0  0  0  0  0  0  0999 V2000
    4.3972  -15.7136   26.6895 C   0  0  0  0  0  0  0  0  0  0  0  0
    3.2800  -14.8087   26.3024 C   0  0  0  0  0  0  0  0  0  0  0  0
    2.0155  -15.0786   26.8159 N   0  0  0  0  0  0  0  0  0  0  0  0
    1.1596  -14.1977   26.3615 C   0  0  0  0  0  0  0  0  0  0  0  0
    1.7884  -12.9907   25.3353 S   0  0  0  0  0  0  0  0  0  0  0  0
    3.3541  -13.6890   25.4819 C   0  0  0  0  0  0  0  0  0  0  0  0
    4.5362  -13.1272   24.8167 C   0  0  0  0  0  0  0  0  0  0  0  0
    5.5057  -13.7671   24.7241 O   0  0  0  0  0  0  0  0  0  0  0  0
    4.2666  -11.6610   24.4259 N   0  0  0  0  0  0  0  0  0  0  0  0
    5.0992  -10.7095   23.7570 C   0  0  0  0  0  0  0  0  0  0  0  0
    4.7006   -9.2637   24.0104 C   0  0  0  0  0  0  0  0  0  0  0  0
    5.4746   -8.5190   22.9351 C   0  0  0  0  0  0  0  0  0  0  0  0
    5.4952   -9.4612   21.7331 C   0  0  0  0  0  0  0  0  0  0  0  0
    5.0401  -10.8274   22.2415 C   0  0  0  0  0  0  0  0  0  0  0  0
  1  2  1  0
  2  3  1  0
  3  4  2  0
  4  5  1  0
  5  6  1  0
  6  7  1  0
  7  8  2  0
  7  9  1  0
  9 10  1  0
 10 11  1  0
 11 12  1  0
 12 13  1  0
 13 14  1  0
  6  2  2  0
 14 10  1  0
M  END
>  <inchikey>  (1033) 
BAKSPJAYRJNEFA-UHFFFAOYSA-N

>  <tags>  (1033) 
fragmenstein_placed,CpKRS_FrAncestor_bulkdock_iter2

>  <ref_pdb>  (1033) 
x0502c

>  <energy_score>  (1033) 
-21.25288

>  <distance_score>  (1033) 
0.276005

>  <HIPPO Pose ID>  (1033) 
57839

>  <ref_mols>  (1033) 
x0421c

>  <smiles>  (1033) 
Cc1ncsc1C(=O)NC1CCCC1

>  <HIPPO Compound ID>  (1033) 
37499

>  <alias>  (1033) 
BAKSPJAYRJNEFA-UHFFFAOYSA-N-P13

>  <subsites>  (1033) 


>  <placement_batch>  (1033) 
CpKRS_FrAncestor_bulkdock_iter2

>  <name>  (1033) 
BAKSPJAYRJNEFA-UHFFFAOYSA-N-P13

$$$$
HKECGNAUAROFTI-UHFFFAOYSA-N-P45
     RDKit          3D

 15 16  0  0  0  0  0  0  0  0999 V2000
    4.5704  -15.7157   27.2400 C   0  0  0  0  0  0  0  0  0  0  0  0
    3.4535  -14.7973   26.9142 C   0  0  0  0  0  0  0  0  0  0  0  0
    2.3239  -14.8863   27.7188 N   0  0  0  0  0  0  0  0  0  0  0  0
    1.4360  -14.0184   27.3139 C   0  0  0  0  0  0  0  0  0  0  0  0
    1.8339  -13.0964   25.9413 S   0  0  0  0  0  0  0  0  0  0  0  0
    3.3954  -13.8343   25.9109 C   0  0  0  0  0  0  0  0  0  0  0  0
    4.4529  -13.3895   24.9876 C   0  0  0  0  0  0  0  0  0  0  0  0
    5.5603  -13.6948   25.1842 O   0  0  0  0  0  0  0  0  0  0  0  0
    3.8463  -12.4787   23.9037 N   0  0  0  0  0  0  0  0  0  0  0  0
    4.4830  -11.6770   22.8926 C   0  0  0  0  0  0  0  0  0  0  0  0
    3.9831  -10.2305   22.9319 C   0  0  2  0  0  0  0  0  0  0  0  0
    4.5901   -9.3754   21.8622 C   0  0  0  0  0  0  0  0  0  0  0  0
    5.4029   -8.4416   22.3608 C   0  0  0  0  0  0  0  0  0  0  0  0
    5.5259   -8.5377   23.8405 C   0  0  0  0  0  0  0  0  0  0  0  0
    4.3789   -9.4755   24.2125 C   0  0  0  0  0  0  0  0  0  0  0  0
  1  2  1  0
  2  3  1  0
  3  4  2  0
  4  5  1  0
  5  6  1  0
  6  7  1  0
  7  8  2  0
  7  9  1  0
  9 10  1  0
 11 10  1  1
 11 12  1  0
 12 13  2  0
 13 14  1  0
 14 15  1  0
  6  2  2  0
 15 11  1  0
M  END
>  <inchikey>  (1034) 
HKECGNAUAROFTI-UHFFFAOYSA-N

>  <tags>  (1034) 
fragmenstein_placed,CpKRS_FrAncestor_bulkdock_iter2

>  <ref_pdb>  (1034) 
x0502c

>  <energy_score>  (1034) 
-81.538652

>  <distance_score>  (1034) 
0.280253

>  <HIPPO Pose ID>  (1034) 
57841

>  <ref_mols>  (1034) 
x0502a

>  <smiles>  (1034) 
Cc1ncsc1C(=O)NCC1C=CCC1

>  <HIPPO Compound ID>  (1034) 
37500

>  <alias>  (1034) 
HKECGNAUAROFTI-UHFFFAOYSA-N-P45

>  <subsites>  (1034) 


>  <placement_batch>  (1034) 
CpKRS_FrAncestor_bulkdock_iter2

>  <name>  (1034) 
HKECGNAUAROFTI-UHFFFAOYSA-N-P45

$$$$
CKQZYHKSXAINCB-UHFFFAOYSA-N-P46
     RDKit          3D

 15 16  0  0  0  0  0  0  0  0999 V2000
    4.4511  -15.7168   27.1304 C   0  0  0  0  0  0  0  0  0  0  0  0
    3.3866  -14.7305   26.8220 C   0  0  0  0  0  0  0  0  0  0  0  0
    2.2349  -14.7531   27.6039 N   0  0  0  0  0  0  0  0  0  0  0  0
    1.4142  -13.8187   27.1948 C   0  0  0  0  0  0  0  0  0  0  0  0
    1.8964  -12.9278   25.8257 S   0  0  0  0  0  0  0  0  0  0  0  0
    3.4073  -13.7628   25.8254 C   0  0  0  0  0  0  0  0  0  0  0  0
    4.5009  -13.3931   24.9141 C   0  0  0  0  0  0  0  0  0  0  0  0
    5.6053  -13.6504   25.1815 O   0  0  0  0  0  0  0  0  0  0  0  0
    3.9179  -12.6340   23.7097 N   0  0  0  0  0  0  0  0  0  0  0  0
    4.5744  -11.9503   22.6309 C   0  0  0  0  0  0  0  0  0  0  0  0
    5.1264  -10.5977   23.0558 C   0  0  2  0  0  0  0  0  0  0  0  0
    4.1949   -9.7927   23.9421 C   0  0  0  0  0  0  0  0  0  0  0  0
    4.7600   -8.4139   23.7584 C   0  0  0  0  0  0  0  0  0  0  0  0
    5.0623   -8.4081   22.2747 C   0  0  0  0  0  0  0  0  0  0  0  0
    5.3654   -9.7626   21.9068 O   0  0  0  0  0  0  0  0  0  0  0  0
  1  2  1  0
  2  3  1  0
  3  4  2  0
  4  5  1  0
  5  6  1  0
  6  7  1  0
  7  8  2  0
  7  9  1  0
  9 10  1  0
 11 10  1  6
 11 12  1  0
 12 13  1  0
 13 14  1  0
 14 15  1  0
  6  2  2  0
 15 11  1  0
M  END
>  <inchikey>  (1035) 
CKQZYHKSXAINCB-UHFFFAOYSA-N

>  <tags>  (1035) 
fragmenstein_placed,CpKRS_FrAncestor_bulkdock_iter2

>  <ref_pdb>  (1035) 
x0502c

>  <energy_score>  (1035) 
-63.975365

>  <distance_score>  (1035) 
0.356612

>  <HIPPO Pose ID>  (1035) 
57846

>  <ref_mols>  (1035) 
x0502c

>  <smiles>  (1035) 
Cc1ncsc1C(=O)NCC1CCCO1

>  <HIPPO Compound ID>  (1035) 
37501

>  <alias>  (1035) 
CKQZYHKSXAINCB-UHFFFAOYSA-N-P46

>  <subsites>  (1035) 


>  <placement_batch>  (1035) 
CpKRS_FrAncestor_bulkdock_iter2

>  <name>  (1035) 
CKQZYHKSXAINCB-UHFFFAOYSA-N-P46

$$$$
MQTFHLXWWUKTCV-UHFFFAOYSA-N-P46
     RDKit          3D

 15 16  0  0  0  0  0  0  0  0999 V2000
    4.5692  -15.5112   26.9243 C   0  0  0  0  0  0  0  0  0  0  0  0
    3.4067  -14.6097   26.7188 C   0  0  0  0  0  0  0  0  0  0  0  0
    2.3415  -14.7258   27.6057 N   0  0  0  0  0  0  0  0  0  0  0  0
    1.4099  -13.8648   27.2813 C   0  0  0  0  0  0  0  0  0  0  0  0
    1.6888  -12.9293   25.8860 S   0  0  0  0  0  0  0  0  0  0  0  0
    3.2496  -13.6436   25.7326 C   0  0  0  0  0  0  0  0  0  0  0  0
    4.1926  -13.2099   24.7225 C   0  0  0  0  0  0  0  0  0  0  0  0
    5.3979  -13.4346   24.7180 O   0  0  0  0  0  0  0  0  0  0  0  0
    3.5709  -12.4431   23.7755 O   0  0  0  0  0  0  0  0  0  0  0  0
    4.3859  -11.8829   22.7355 C   0  0  0  0  0  0  0  0  0  0  0  0
    4.9949  -10.5733   23.1983 C   0  0  2  0  0  0  0  0  0  0  0  0
    4.0731   -9.7003   24.0164 C   0  0  0  0  0  0  0  0  0  0  0  0
    4.8234   -8.3954   23.9748 C   0  0  0  0  0  0  0  0  0  0  0  0
    5.3608   -8.2962   22.6500 O   0  0  0  0  0  0  0  0  0  0  0  0
    5.3873   -9.6197   22.0823 C   0  0  0  0  0  0  0  0  0  0  0  0
  1  2  1  0
  2  3  1  0
  3  4  2  0
  4  5  1  0
  5  6  1  0
  6  7  1  0
  7  8  2  0
  7  9  1  0
  9 10  1  0
 11 10  1  6
 11 12  1  0
 12 13  1  0
 13 14  1  0
 14 15  1  0
  6  2  2  0
 15 11  1  0
M  END
>  <inchikey>  (1036) 
MQTFHLXWWUKTCV-UHFFFAOYSA-N

>  <tags>  (1036) 
fragmenstein_placed,CpKRS_FrAncestor_bulkdock_iter2

>  <ref_pdb>  (1036) 
x0502c

>  <energy_score>  (1036) 
-58.154836

>  <distance_score>  (1036) 
0.300662

>  <HIPPO Pose ID>  (1036) 
57849

>  <ref_mols>  (1036) 
x0502c

>  <smiles>  (1036) 
Cc1ncsc1C(=O)OCC1CCOC1

>  <HIPPO Compound ID>  (1036) 
37503

>  <alias>  (1036) 
MQTFHLXWWUKTCV-UHFFFAOYSA-N-P46

>  <subsites>  (1036) 


>  <placement_batch>  (1036) 
CpKRS_FrAncestor_bulkdock_iter2

>  <name>  (1036) 
MQTFHLXWWUKTCV-UHFFFAOYSA-N-P46

$$$$
KOJCMQTWAARWSU-UHFFFAOYSA-N-P44
     RDKit          3D

 17 18  0  0  0  0  0  0  0  0999 V2000
   -9.7978  -14.4416   48.9731 C   0  0  0  0  0  0  0  0  0  0  0  0
   -9.3891  -13.2382   48.1989 C   0  0  0  0  0  0  0  0  0  0  0  0
   -8.1876  -12.6236   48.4761 N   0  0  0  0  0  0  0  0  0  0  0  0
   -8.0576  -11.4861   47.7294 C   0  0  0  0  0  0  0  0  0  0  0  0
   -9.1649  -11.3884   46.9226 C   0  0  0  0  0  0  0  0  0  0  0  0
  -10.0099  -12.5126   47.1827 C   0  0  0  0  0  0  0  0  0  0  0  0
  -11.3041  -12.7583   46.5189 C   0  0  0  0  0  0  0  0  0  0  0  0
  -11.9714  -11.8520   46.2198 O   0  0  0  0  0  0  0  0  0  0  0  0
  -11.5179  -14.2649   46.3080 N   0  0  0  0  0  0  0  0  0  0  0  0
  -12.6444  -14.9845   45.7677 C   0  0  0  0  0  0  0  0  0  0  0  0
  -12.5120  -15.1892   44.2471 C   0  0  1  0  0  0  0  0  0  0  0  0
  -11.4895  -16.3015   43.9456 C   0  0  0  0  0  0  0  0  0  0  0  0
  -12.2866  -17.5796   43.6870 C   0  0  0  0  0  0  0  0  0  0  0  0
  -13.7581  -17.1975   43.7791 C   0  0  0  0  0  0  0  0  0  0  0  0
  -13.7969  -15.6837   43.5261 C   0  0  0  0  0  0  0  0  0  0  0  0
  -15.1037  -15.0745   44.0453 C   0  0  0  0  0  0  0  0  0  0  0  0
  -13.7048  -15.3895   42.0124 C   0  0  0  0  0  0  0  0  0  0  0  0
  1  2  1  0
  2  3  1  0
  3  4  1  0
  4  5  2  0
  5  6  1  0
  6  7  1  0
  7  8  2  0
  7  9  1  0
  9 10  1  0
 11 10  1  1
 11 12  1  0
 12 13  1  0
 13 14  1  0
 14 15  1  0
 15 16  1  0
 15 17  1  0
  6  2  2  0
 15 11  1  0
M  END
>  <inchikey>  (1037) 
KOJCMQTWAARWSU-UHFFFAOYSA-N

>  <tags>  (1037) 
fragmenstein_placed,CpKRS_FrAncestor_bulkdock_iter2

>  <ref_pdb>  (1037) 
x0502c

>  <energy_score>  (1037) 
-24.997815

>  <distance_score>  (1037) 
0.367367

>  <HIPPO Pose ID>  (1037) 
57851

>  <ref_mols>  (1037) 
x0502b

>  <smiles>  (1037) 
Cc1[nH]ccc1C(=O)NCC1CCCC1(C)C

>  <HIPPO Compound ID>  (1037) 
37509

>  <alias>  (1037) 
KOJCMQTWAARWSU-UHFFFAOYSA-N-P44

>  <subsites>  (1037) 


>  <placement_batch>  (1037) 
CpKRS_FrAncestor_bulkdock_iter2

>  <name>  (1037) 
KOJCMQTWAARWSU-UHFFFAOYSA-N-P44

$$$$
CTMGCTYDWRXWEO-UHFFFAOYSA-N-P44
     RDKit          3D

 15 16  0  0  0  0  0  0  0  0999 V2000
   -9.7506  -14.4621   49.0255 C   0  0  0  0  0  0  0  0  0  0  0  0
   -9.3969  -13.2612   48.2213 C   0  0  0  0  0  0  0  0  0  0  0  0
   -8.1955  -12.6225   48.4355 N   0  0  0  0  0  0  0  0  0  0  0  0
   -8.1222  -11.4912   47.6713 C   0  0  0  0  0  0  0  0  0  0  0  0
   -9.2688  -11.4213   46.9177 C   0  0  0  0  0  0  0  0  0  0  0  0
  -10.0783  -12.5577   47.2292 C   0  0  0  0  0  0  0  0  0  0  0  0
  -11.3997  -12.8377   46.6394 C   0  0  0  0  0  0  0  0  0  0  0  0
  -12.1449  -11.9597   46.4664 O   0  0  0  0  0  0  0  0  0  0  0  0
  -11.5588  -14.3444   46.3830 N   0  0  0  0  0  0  0  0  0  0  0  0
  -12.6341  -15.0807   45.7706 C   0  0  0  0  0  0  0  0  0  0  0  0
  -12.4384  -15.2204   44.2545 C   0  0  0  0  0  0  0  0  0  0  0  0
  -13.7272  -15.6304   43.5405 C   0  0  0  0  0  0  0  0  0  0  0  0
  -13.7947  -17.1359   43.7330 C   0  0  0  0  0  0  0  0  0  0  0  0
  -12.3470  -17.5988   43.6500 C   0  0  0  0  0  0  0  0  0  0  0  0
  -11.4809  -16.3643   43.9040 C   0  0  0  0  0  0  0  0  0  0  0  0
  1  2  1  0
  2  3  1  0
  3  4  1  0
  4  5  2  0
  5  6  1  0
  6  7  1  0
  7  8  2  0
  7  9  1  0
  9 10  1  0
 10 11  1  0
 11 12  1  0
 12 13  1  0
 13 14  1  0
 14 15  1  0
  6  2  2  0
 15 11  1  0
M  END
>  <inchikey>  (1038) 
CTMGCTYDWRXWEO-UHFFFAOYSA-N

>  <tags>  (1038) 
fragmenstein_placed,CpKRS_FrAncestor_bulkdock_iter2

>  <ref_pdb>  (1038) 
x0502c

>  <energy_score>  (1038) 
-4.205932

>  <distance_score>  (1038) 
0.372803

>  <HIPPO Pose ID>  (1038) 
57854

>  <ref_mols>  (1038) 
x0502b

>  <smiles>  (1038) 
Cc1[nH]ccc1C(=O)NCC1CCCC1

>  <HIPPO Compound ID>  (1038) 
37510

>  <alias>  (1038) 
CTMGCTYDWRXWEO-UHFFFAOYSA-N-P44

>  <subsites>  (1038) 


>  <placement_batch>  (1038) 
CpKRS_FrAncestor_bulkdock_iter2

>  <name>  (1038) 
CTMGCTYDWRXWEO-UHFFFAOYSA-N-P44

$$$$
OQVAPYNMNMXKQG-UHFFFAOYSA-N-P49
     RDKit          3D

 14 14  0  0  0  0  0  0  0  0999 V2000
    4.3216  -16.0085   26.3944 C   0  0  0  0  0  0  0  0  0  0  0  0
    3.2300  -14.9992   26.3821 C   0  0  0  0  0  0  0  0  0  0  0  0
    2.1056  -15.1766   27.1485 N   0  0  0  0  0  0  0  0  0  0  0  0
    1.2707  -14.1063   26.9913 C   0  0  0  0  0  0  0  0  0  0  0  0
    1.8657  -13.2325   26.1078 C   0  0  0  0  0  0  0  0  0  0  0  0
    3.1265  -13.7841   25.7056 C   0  0  0  0  0  0  0  0  0  0  0  0
    4.1857  -13.2255   24.8220 C   0  0  0  0  0  0  0  0  0  0  0  0
    5.2533  -13.6896   24.8528 O   0  0  0  0  0  0  0  0  0  0  0  0
    3.6211  -12.0816   23.9645 N   0  0  0  0  0  0  0  0  0  0  0  0
    4.2778  -11.1985   23.0257 C   0  0  0  0  0  0  0  0  0  0  0  0
    4.3859   -9.7437   23.4971 C   0  0  0  0  0  0  0  0  0  0  0  0
    5.3358   -8.9256   22.6482 C   0  0  0  0  0  0  0  0  0  0  0  0
    4.7865   -9.6782   24.7913 F   0  0  0  0  0  0  0  0  0  0  0  0
    3.1579   -9.1484   23.4349 F   0  0  0  0  0  0  0  0  0  0  0  0
  1  2  1  0
  2  3  1  0
  3  4  1  0
  4  5  2  0
  5  6  1  0
  6  7  1  0
  7  8  2  0
  7  9  1  0
  9 10  1  0
 10 11  1  0
 11 12  1  0
 11 13  1  0
 11 14  1  0
  6  2  2  0
M  END
>  <inchikey>  (1039) 
OQVAPYNMNMXKQG-UHFFFAOYSA-N

>  <tags>  (1039) 
fragmenstein_placed,CpKRS_FrAncestor_bulkdock_iter2

>  <ref_pdb>  (1039) 
x0502c

>  <energy_score>  (1039) 
-9.526536

>  <distance_score>  (1039) 
0.385789

>  <HIPPO Pose ID>  (1039) 
57860

>  <ref_mols>  (1039) 
x0504b

>  <smiles>  (1039) 
Cc1[nH]ccc1C(=O)NCC(C)(F)F

>  <HIPPO Compound ID>  (1039) 
37512

>  <alias>  (1039) 
OQVAPYNMNMXKQG-UHFFFAOYSA-N-P49

>  <subsites>  (1039) 


>  <placement_batch>  (1039) 
CpKRS_FrAncestor_bulkdock_iter2

>  <name>  (1039) 
OQVAPYNMNMXKQG-UHFFFAOYSA-N-P49

$$$$
ANWKUCSVCWZJMV-UHFFFAOYSA-N-P55
     RDKit          3D

 16 17  0  0  0  0  0  0  0  0999 V2000
    1.4676  -13.0170   26.1664 C   0  0  0  0  0  0  0  0  0  0  0  0
    2.4372  -14.1053   26.4553 C   0  0  0  0  0  0  0  0  0  0  0  0
    2.1384  -15.0302   27.4320 N   0  0  0  0  0  0  0  0  0  0  0  0
    3.1819  -15.8928   27.6037 C   0  0  0  0  0  0  0  0  0  0  0  0
    4.1743  -15.5204   26.7315 C   0  0  0  0  0  0  0  0  0  0  0  0
    3.7093  -14.4069   25.9626 C   0  0  0  0  0  0  0  0  0  0  0  0
    4.5186  -13.7243   24.9276 C   0  0  0  0  0  0  0  0  0  0  0  0
    5.6734  -13.6804   25.0545 O   0  0  0  0  0  0  0  0  0  0  0  0
    3.6140  -13.1048   23.8610 N   0  0  0  0  0  0  0  0  0  0  0  0
    3.9412  -12.3778   22.6695 C   0  0  0  0  0  0  0  0  0  0  0  0
    4.1627  -10.9394   23.0415 C   0  0  0  0  0  0  0  0  0  0  0  0
    3.4110  -10.2498   23.8881 N   0  0  0  0  0  0  0  0  0  0  0  0
    4.0572   -9.0770   24.2109 C   0  0  0  0  0  0  0  0  0  0  0  0
    5.2142   -8.8490   23.5207 C   0  0  0  0  0  0  0  0  0  0  0  0
    6.2827   -7.5513   23.7725 Cl  0  0  0  0  0  0  0  0  0  0  0  0
    5.4900  -10.0583   22.3736 S   0  0  0  0  0  0  0  0  0  0  0  0
  1  2  1  0
  2  3  1  0
  3  4  1  0
  4  5  2  0
  5  6  1  0
  6  7  1  0
  7  8  2  0
  7  9  1  0
  9 10  1  0
 10 11  1  0
 11 12  2  0
 12 13  1  0
 13 14  2  0
 14 15  1  0
 14 16  1  0
  6  2  2  0
 16 11  1  0
M  END
>  <inchikey>  (1040) 
ANWKUCSVCWZJMV-UHFFFAOYSA-N

>  <tags>  (1040) 
fragmenstein_placed,CpKRS_FrAncestor_bulkdock_iter2

>  <ref_pdb>  (1040) 
x0502c

>  <energy_score>  (1040) 
-33.665437

>  <distance_score>  (1040) 
0.862664

>  <HIPPO Pose ID>  (1040) 
57862

>  <ref_mols>  (1040) 
x0646a

>  <smiles>  (1040) 
Cc1[nH]ccc1C(=O)NCc1ncc(Cl)s1

>  <HIPPO Compound ID>  (1040) 
37513

>  <alias>  (1040) 
ANWKUCSVCWZJMV-UHFFFAOYSA-N-P55

>  <subsites>  (1040) 


>  <placement_batch>  (1040) 
CpKRS_FrAncestor_bulkdock_iter2

>  <name>  (1040) 
ANWKUCSVCWZJMV-UHFFFAOYSA-N-P55

$$$$
XVJYRUWWTOOSDD-UHFFFAOYSA-N-P55
     RDKit          3D

 19 20  0  0  0  0  0  0  0  0999 V2000
    1.5175  -12.9176   26.0745 C   0  0  0  0  0  0  0  0  0  0  0  0
    2.4549  -14.0087   26.4458 C   0  0  0  0  0  0  0  0  0  0  0  0
    2.0717  -14.8998   27.4282 N   0  0  0  0  0  0  0  0  0  0  0  0
    3.0677  -15.7972   27.6757 C   0  0  0  0  0  0  0  0  0  0  0  0
    4.1171  -15.4809   26.8521 C   0  0  0  0  0  0  0  0  0  0  0  0
    3.7470  -14.3574   26.0393 C   0  0  0  0  0  0  0  0  0  0  0  0
    4.6666  -13.7732   25.0269 C   0  0  0  0  0  0  0  0  0  0  0  0
    5.8037  -13.9989   25.1181 O   0  0  0  0  0  0  0  0  0  0  0  0
    3.8926  -12.9936   23.9622 N   0  0  0  0  0  0  0  0  0  0  0  0
    4.3343  -12.4066   22.7360 C   0  0  0  0  0  0  0  0  0  0  0  0
    4.7132  -10.9568   22.8699 C   0  0  0  0  0  0  0  0  0  0  0  0
    4.8266  -10.2342   23.9699 N   0  0  0  0  0  0  0  0  0  0  0  0
    5.3361   -8.9599   23.6707 C   0  0  0  0  0  0  0  0  0  0  0  0
    5.7265   -7.9771   24.7340 C   0  0  0  0  0  0  0  0  0  0  0  0
    5.5027   -6.7008   24.3115 F   0  0  0  0  0  0  0  0  0  0  0  0
    7.0481   -8.0563   25.0154 F   0  0  0  0  0  0  0  0  0  0  0  0
    5.0378   -8.1302   25.8894 F   0  0  0  0  0  0  0  0  0  0  0  0
    5.4627   -8.7125   22.3170 C   0  0  0  0  0  0  0  0  0  0  0  0
    5.0713  -10.0987   21.4209 S   0  0  0  0  0  0  0  0  0  0  0  0
  1  2  1  0
  2  3  1  0
  3  4  1  0
  4  5  2  0
  5  6  1  0
  6  7  1  0
  7  8  2  0
  7  9  1  0
  9 10  1  0
 10 11  1  0
 11 12  2  0
 12 13  1  0
 13 14  1  0
 14 15  1  0
 14 16  1  0
 14 17  1  0
 13 18  2  0
 18 19  1  0
  6  2  2  0
 19 11  1  0
M  END
>  <inchikey>  (1041) 
XVJYRUWWTOOSDD-UHFFFAOYSA-N

>  <tags>  (1041) 
fragmenstein_placed,CpKRS_FrAncestor_bulkdock_iter2

>  <ref_pdb>  (1041) 
x0502c

>  <energy_score>  (1041) 
-29.061186

>  <distance_score>  (1041) 
0.305454

>  <HIPPO Pose ID>  (1041) 
57863

>  <ref_mols>  (1041) 
x0646a

>  <smiles>  (1041) 
Cc1[nH]ccc1C(=O)NCc1nc(C(F)(F)F)cs1

>  <HIPPO Compound ID>  (1041) 
37514

>  <alias>  (1041) 
XVJYRUWWTOOSDD-UHFFFAOYSA-N-P55

>  <subsites>  (1041) 


>  <placement_batch>  (1041) 
CpKRS_FrAncestor_bulkdock_iter2

>  <name>  (1041) 
XVJYRUWWTOOSDD-UHFFFAOYSA-N-P55

$$$$
IBWJMHKBLVMECC-UHFFFAOYSA-N-P55
     RDKit          3D

 16 17  0  0  0  0  0  0  0  0999 V2000
    1.5396  -12.9477   26.0913 C   0  0  0  0  0  0  0  0  0  0  0  0
    2.4702  -14.0514   26.4418 C   0  0  0  0  0  0  0  0  0  0  0  0
    2.0998  -14.9604   27.4100 N   0  0  0  0  0  0  0  0  0  0  0  0
    3.1087  -15.8508   27.6366 C   0  0  0  0  0  0  0  0  0  0  0  0
    4.1514  -15.5114   26.8117 C   0  0  0  0  0  0  0  0  0  0  0  0
    3.7591  -14.3858   26.0188 C   0  0  0  0  0  0  0  0  0  0  0  0
    4.6422  -13.7487   25.0137 C   0  0  0  0  0  0  0  0  0  0  0  0
    5.7947  -13.8488   25.1313 O   0  0  0  0  0  0  0  0  0  0  0  0
    3.8122  -13.0629   23.9271 N   0  0  0  0  0  0  0  0  0  0  0  0
    4.2153  -12.4361   22.7054 C   0  0  0  0  0  0  0  0  0  0  0  0
    4.6008  -10.9957   22.9039 C   0  0  0  0  0  0  0  0  0  0  0  0
    4.5321  -10.2894   24.0173 N   0  0  0  0  0  0  0  0  0  0  0  0
    5.1037   -9.0451   23.8233 C   0  0  0  0  0  0  0  0  0  0  0  0
    5.2730   -7.9394   25.1109 Cl  0  0  0  0  0  0  0  0  0  0  0  0
    5.4752   -8.7647   22.5290 C   0  0  0  0  0  0  0  0  0  0  0  0
    5.1829  -10.1179   21.5390 S   0  0  0  0  0  0  0  0  0  0  0  0
  1  2  1  0
  2  3  1  0
  3  4  1  0
  4  5  2  0
  5  6  1  0
  6  7  1  0
  7  8  2  0
  7  9  1  0
  9 10  1  0
 10 11  1  0
 11 12  2  0
 12 13  1  0
 13 14  1  0
 13 15  2  0
 15 16  1  0
  6  2  2  0
 16 11  1  0
M  END
>  <inchikey>  (1042) 
IBWJMHKBLVMECC-UHFFFAOYSA-N

>  <tags>  (1042) 
fragmenstein_placed,CpKRS_FrAncestor_bulkdock_iter2

>  <ref_pdb>  (1042) 
x0502c

>  <energy_score>  (1042) 
-45.891305

>  <distance_score>  (1042) 
0.324922

>  <HIPPO Pose ID>  (1042) 
57864

>  <ref_mols>  (1042) 
x0646a

>  <smiles>  (1042) 
Cc1[nH]ccc1C(=O)NCc1nc(Cl)cs1

>  <HIPPO Compound ID>  (1042) 
37515

>  <alias>  (1042) 
IBWJMHKBLVMECC-UHFFFAOYSA-N-P55

>  <subsites>  (1042) 


>  <placement_batch>  (1042) 
CpKRS_FrAncestor_bulkdock_iter2

>  <name>  (1042) 
IBWJMHKBLVMECC-UHFFFAOYSA-N-P55

$$$$
SAUVAWJUZPSILW-UHFFFAOYSA-N-P55
     RDKit          3D

 15 16  0  0  0  0  0  0  0  0999 V2000
    1.5302  -12.8863   26.0282 C   0  0  0  0  0  0  0  0  0  0  0  0
    2.4596  -13.9887   26.3852 C   0  0  0  0  0  0  0  0  0  0  0  0
    2.0862  -14.8873   27.3632 N   0  0  0  0  0  0  0  0  0  0  0  0
    3.0909  -15.7791   27.6006 C   0  0  0  0  0  0  0  0  0  0  0  0
    4.1328  -15.4543   26.7695 C   0  0  0  0  0  0  0  0  0  0  0  0
    3.7448  -14.3355   25.9606 C   0  0  0  0  0  0  0  0  0  0  0  0
    4.6360  -13.7315   24.9386 C   0  0  0  0  0  0  0  0  0  0  0  0
    5.7853  -13.8711   25.0510 O   0  0  0  0  0  0  0  0  0  0  0  0
    3.8214  -13.0650   23.8269 N   0  0  0  0  0  0  0  0  0  0  0  0
    4.2478  -12.3453   22.6636 C   0  0  0  0  0  0  0  0  0  0  0  0
    4.5170  -10.8956   22.9569 C   0  0  0  0  0  0  0  0  0  0  0  0
    4.1771  -10.2242   24.0432 N   0  0  0  0  0  0  0  0  0  0  0  0
    4.7179   -8.9531   23.9956 C   0  0  0  0  0  0  0  0  0  0  0  0
    5.3525   -8.6191   22.8215 C   0  0  0  0  0  0  0  0  0  0  0  0
    5.3154   -9.9496   21.7520 S   0  0  0  0  0  0  0  0  0  0  0  0
  1  2  1  0
  2  3  1  0
  3  4  1  0
  4  5  2  0
  5  6  1  0
  6  7  1  0
  7  8  2  0
  7  9  1  0
  9 10  1  0
 10 11  1  0
 11 12  2  0
 12 13  1  0
 13 14  2  0
 14 15  1  0
  6  2  2  0
 15 11  1  0
M  END
>  <inchikey>  (1043) 
SAUVAWJUZPSILW-UHFFFAOYSA-N

>  <tags>  (1043) 
fragmenstein_placed,CpKRS_FrAncestor_bulkdock_iter2

>  <ref_pdb>  (1043) 
x0502c

>  <energy_score>  (1043) 
-35.402837

>  <distance_score>  (1043) 
0.468149

>  <HIPPO Pose ID>  (1043) 
57865

>  <ref_mols>  (1043) 
x0646a

>  <smiles>  (1043) 
Cc1[nH]ccc1C(=O)NCc1nccs1

>  <HIPPO Compound ID>  (1043) 
37516

>  <alias>  (1043) 
SAUVAWJUZPSILW-UHFFFAOYSA-N-P55

>  <subsites>  (1043) 


>  <placement_batch>  (1043) 
CpKRS_FrAncestor_bulkdock_iter2

>  <name>  (1043) 
SAUVAWJUZPSILW-UHFFFAOYSA-N-P55

$$$$
MNJMJANRGIMZQL-UHFFFAOYSA-N-P55
     RDKit          3D

 16 17  0  0  0  0  0  0  0  0999 V2000
    1.1307  -12.8988   26.3800 C   0  0  0  0  0  0  0  0  0  0  0  0
    2.1886  -13.9231   26.5742 C   0  0  0  0  0  0  0  0  0  0  0  0
    1.9614  -14.9336   27.4862 N   0  0  0  0  0  0  0  0  0  0  0  0
    3.0402  -15.7630   27.5633 C   0  0  0  0  0  0  0  0  0  0  0  0
    3.9930  -15.2734   26.7071 C   0  0  0  0  0  0  0  0  0  0  0  0
    3.4717  -14.1069   26.0493 C   0  0  0  0  0  0  0  0  0  0  0  0
    4.2630  -13.3315   25.0551 C   0  0  0  0  0  0  0  0  0  0  0  0
    5.4099  -13.5228   24.9948 O   0  0  0  0  0  0  0  0  0  0  0  0
    3.3574  -12.4358   24.1984 N   0  0  0  0  0  0  0  0  0  0  0  0
    3.6540  -11.6538   23.0197 C   0  0  2  0  0  0  0  0  0  0  0  0
    4.4908  -12.5047   22.0916 C   0  0  0  0  0  0  0  0  0  0  0  0
    4.2835  -10.3215   23.3455 C   0  0  0  0  0  0  0  0  0  0  0  0
    3.9659   -9.5725   24.3867 N   0  0  0  0  0  0  0  0  0  0  0  0
    4.7799   -8.4586   24.4306 C   0  0  0  0  0  0  0  0  0  0  0  0
    5.6130   -8.2874   23.3514 C   0  0  0  0  0  0  0  0  0  0  0  0
    5.3850   -9.5584   22.2409 S   0  0  0  0  0  0  0  0  0  0  0  0
  1  2  1  0
  2  3  1  0
  3  4  1  0
  4  5  2  0
  5  6  1  0
  6  7  1  0
  7  8  2  0
  7  9  1  0
  9 10  1  0
 10 11  1  6
 10 12  1  0
 12 13  2  0
 13 14  1  0
 14 15  2  0
 15 16  1  0
  6  2  2  0
 16 12  1  0
M  END
>  <inchikey>  (1044) 
MNJMJANRGIMZQL-UHFFFAOYSA-N

>  <tags>  (1044) 
fragmenstein_placed,CpKRS_FrAncestor_bulkdock_iter2

>  <ref_pdb>  (1044) 
x0502c

>  <energy_score>  (1044) 
-44.617659

>  <distance_score>  (1044) 
0.729926

>  <HIPPO Pose ID>  (1044) 
57866

>  <ref_mols>  (1044) 
x0646a

>  <smiles>  (1044) 
Cc1[nH]ccc1C(=O)NC(C)c1nccs1

>  <HIPPO Compound ID>  (1044) 
37517

>  <alias>  (1044) 
MNJMJANRGIMZQL-UHFFFAOYSA-N-P55

>  <subsites>  (1044) 


>  <placement_batch>  (1044) 
CpKRS_FrAncestor_bulkdock_iter2

>  <name>  (1044) 
MNJMJANRGIMZQL-UHFFFAOYSA-N-P55

$$$$
VNCYWECKZRCTFX-UHFFFAOYSA-N-P55
     RDKit          3D

 17 18  0  0  0  0  0  0  0  0999 V2000
    0.8684  -13.8067   26.4972 C   0  0  0  0  0  0  0  0  0  0  0  0
    2.2004  -14.3806   26.8286 C   0  0  0  0  0  0  0  0  0  0  0  0
    2.2710  -15.2479   27.8971 N   0  0  0  0  0  0  0  0  0  0  0  0
    3.5059  -15.8149   27.9732 C   0  0  0  0  0  0  0  0  0  0  0  0
    4.2784  -15.2454   26.9931 C   0  0  0  0  0  0  0  0  0  0  0  0
    3.4862  -14.2846   26.2784 C   0  0  0  0  0  0  0  0  0  0  0  0
    4.0240  -13.4907   25.1380 C   0  0  0  0  0  0  0  0  0  0  0  0
    5.0455  -13.7998   24.6731 O   0  0  0  0  0  0  0  0  0  0  0  0
    3.0223  -12.4118   24.7088 N   0  0  0  0  0  0  0  0  0  0  0  0
    3.0164  -11.5391   23.5522 C   0  0  0  0  0  0  0  0  0  0  0  0
    3.1980  -12.4304   22.3300 C   0  0  0  0  0  0  0  0  0  0  0  0
    1.6231  -10.8740   23.4772 C   0  0  0  0  0  0  0  0  0  0  0  0
    4.0536  -10.4263   23.6509 C   0  0  0  0  0  0  0  0  0  0  0  0
    3.9481   -9.4172   24.5017 N   0  0  0  0  0  0  0  0  0  0  0  0
    4.9924   -8.5321   24.3335 C   0  0  0  0  0  0  0  0  0  0  0  0
    5.8339   -8.8086   23.2852 C   0  0  0  0  0  0  0  0  0  0  0  0
    5.3394  -10.2410   22.5054 S   0  0  0  0  0  0  0  0  0  0  0  0
  1  2  1  0
  2  3  1  0
  3  4  1  0
  4  5  2  0
  5  6  1  0
  6  7  1  0
  7  8  2  0
  7  9  1  0
  9 10  1  0
 10 11  1  0
 10 12  1  0
 10 13  1  0
 13 14  2  0
 14 15  1  0
 15 16  2  0
 16 17  1  0
  6  2  2  0
 17 13  1  0
M  END
>  <inchikey>  (1045) 
VNCYWECKZRCTFX-UHFFFAOYSA-N

>  <tags>  (1045) 
fragmenstein_placed,CpKRS_FrAncestor_bulkdock_iter2

>  <ref_pdb>  (1045) 
x0502c

>  <energy_score>  (1045) 
-62.133722

>  <distance_score>  (1045) 
0.868549

>  <HIPPO Pose ID>  (1045) 
57867

>  <ref_mols>  (1045) 
x0646a

>  <smiles>  (1045) 
Cc1[nH]ccc1C(=O)NC(C)(C)c1nccs1

>  <HIPPO Compound ID>  (1045) 
37518

>  <alias>  (1045) 
VNCYWECKZRCTFX-UHFFFAOYSA-N-P55

>  <subsites>  (1045) 


>  <placement_batch>  (1045) 
CpKRS_FrAncestor_bulkdock_iter2

>  <name>  (1045) 
VNCYWECKZRCTFX-UHFFFAOYSA-N-P55

$$$$
QVPQMQQORSHDNX-VIFPVBQESA-N-P44
     RDKit          3D

 16 17  0  0  0  0  0  0  0  0999 V2000
   -9.7629  -14.4482   49.0607 C   0  0  0  0  0  0  0  0  0  0  0  0
   -9.3751  -13.2823   48.2208 C   0  0  0  0  0  0  0  0  0  0  0  0
   -8.2061  -12.6070   48.4977 N   0  0  0  0  0  0  0  0  0  0  0  0
   -8.0913  -11.5118   47.6889 C   0  0  0  0  0  0  0  0  0  0  0  0
   -9.1695  -11.5088   46.8384 C   0  0  0  0  0  0  0  0  0  0  0  0
   -9.9829  -12.6487   47.1366 C   0  0  0  0  0  0  0  0  0  0  0  0
  -11.2416  -12.9778   46.4370 C   0  0  0  0  0  0  0  0  0  0  0  0
  -11.8898  -12.1117   46.0041 O   0  0  0  0  0  0  0  0  0  0  0  0
  -11.4602  -14.5005   46.4021 N   0  0  0  0  0  0  0  0  0  0  0  0
  -12.5805  -15.2826   45.9057 C   0  0  1  0  0  0  0  0  0  0  0  0
  -13.8731  -14.7600   46.5313 C   0  0  0  0  0  0  0  0  0  0  0  0
  -12.5840  -15.2705   44.3549 C   0  0  0  0  0  0  0  0  0  0  0  0
  -13.8674  -15.7600   43.6795 C   0  0  0  0  0  0  0  0  0  0  0  0
  -13.7820  -17.2737   43.7677 C   0  0  0  0  0  0  0  0  0  0  0  0
  -12.2993  -17.5891   43.6162 C   0  0  0  0  0  0  0  0  0  0  0  0
  -11.5538  -16.2667   43.8016 C   0  0  0  0  0  0  0  0  0  0  0  0
  1  2  1  0
  2  3  1  0
  3  4  1  0
  4  5  2  0
  5  6  1  0
  6  7  1  0
  7  8  2  0
  7  9  1  0
  9 10  1  0
 10 11  1  1
 10 12  1  0
 12 13  1  0
 13 14  1  0
 14 15  1  0
 15 16  1  0
  6  2  2  0
 16 12  1  0
M  END
>  <inchikey>  (1046) 
QVPQMQQORSHDNX-UHFFFAOYSA-N

>  <tags>  (1046) 
fragmenstein_placed,CpKRS_FrAncestor_bulkdock_iter2

>  <ref_pdb>  (1046) 
x0502c

>  <energy_score>  (1046) 
-16.226289

>  <distance_score>  (1046) 
0.293992

>  <HIPPO Pose ID>  (1046) 
57869

>  <ref_mols>  (1046) 
x0502b

>  <smiles>  (1046) 
Cc1[nH]ccc1C(=O)N[C@@H](C)C1CCCC1

>  <HIPPO Compound ID>  (1046) 
37511

>  <alias>  (1046) 
QVPQMQQORSHDNX-VIFPVBQESA-N-P44

>  <subsites>  (1046) 


>  <placement_batch>  (1046) 
CpKRS_FrAncestor_bulkdock_iter2

>  <name>  (1046) 
QVPQMQQORSHDNX-VIFPVBQESA-N-P44

$$$$
RBIAFMKSRRLMAN-UHFFFAOYSA-N-P47
     RDKit          3D

 13 13  0  0  0  0  0  0  0  0999 V2000
    4.2856    2.4762   44.1576 C   0  0  0  0  0  0  0  0  0  0  0  0
    3.4950    3.3523   45.0706 C   0  0  0  0  0  0  0  0  0  0  0  0
    3.3272    3.0441   46.3981 N   0  0  0  0  0  0  0  0  0  0  0  0
    2.5447    3.9893   46.9977 C   0  0  0  0  0  0  0  0  0  0  0  0
    2.1974    4.9193   46.0473 C   0  0  0  0  0  0  0  0  0  0  0  0
    2.7908    4.5270   44.8090 C   0  0  0  0  0  0  0  0  0  0  0  0
    2.6762    5.1534   43.4790 C   0  0  0  0  0  0  0  0  0  0  0  0
    2.8246    4.5017   42.5283 O   0  0  0  0  0  0  0  0  0  0  0  0
    2.3596    6.6450   43.6204 N   0  0  0  0  0  0  0  0  0  0  0  0
    2.2502    7.6799   42.6194 C   0  0  0  0  0  0  0  0  0  0  0  0
    3.4612    7.7218   41.7002 C   0  0  0  0  0  0  0  0  0  0  0  0
    4.5712    7.9665   42.4485 F   0  0  0  0  0  0  0  0  0  0  0  0
    3.3476    8.7547   40.8281 F   0  0  0  0  0  0  0  0  0  0  0  0
  1  2  1  0
  2  3  1  0
  3  4  1  0
  4  5  2  0
  5  6  1  0
  6  7  1  0
  7  8  2  0
  7  9  1  0
  9 10  1  0
 10 11  1  0
 11 12  1  0
 11 13  1  0
  6  2  2  0
M  END
>  <inchikey>  (1047) 
RBIAFMKSRRLMAN-UHFFFAOYSA-N

>  <tags>  (1047) 
fragmenstein_placed,CpKRS_FrAncestor_bulkdock_iter2

>  <ref_pdb>  (1047) 
x0502c

>  <energy_score>  (1047) 
-1.346789

>  <distance_score>  (1047) 
0.427859

>  <HIPPO Pose ID>  (1047) 
57873

>  <ref_mols>  (1047) 
x0504c

>  <smiles>  (1047) 
Cc1[nH]ccc1C(=O)NCC(F)F

>  <HIPPO Compound ID>  (1047) 
37519

>  <alias>  (1047) 
RBIAFMKSRRLMAN-UHFFFAOYSA-N-P47

>  <subsites>  (1047) 


>  <placement_batch>  (1047) 
CpKRS_FrAncestor_bulkdock_iter2

>  <name>  (1047) 
RBIAFMKSRRLMAN-UHFFFAOYSA-N-P47

$$$$
NPXZXJJBOVRWEI-UHFFFAOYSA-N-P13
     RDKit          3D

 16 17  0  0  0  0  0  0  0  0999 V2000
    2.0262  -15.6098   28.3758 C   0  0  0  0  0  0  0  0  0  0  0  0
    2.3256  -14.8245   27.1532 C   0  0  0  0  0  0  0  0  0  0  0  0
    1.4018  -14.0003   26.5698 N   0  0  0  0  0  0  0  0  0  0  0  0
    1.9512  -13.3443   25.4967 C   0  0  0  0  0  0  0  0  0  0  0  0
    1.1304  -12.4226   24.6658 C   0  0  0  0  0  0  0  0  0  0  0  0
    3.2834  -13.7376   25.4023 C   0  0  0  0  0  0  0  0  0  0  0  0
    4.3007  -13.2383   24.4583 C   0  0  0  0  0  0  0  0  0  0  0  0
    5.0453  -13.9724   23.9472 O   0  0  0  0  0  0  0  0  0  0  0  0
    4.2062  -11.7061   24.3880 N   0  0  0  0  0  0  0  0  0  0  0  0
    5.0609  -10.7504   23.7536 C   0  0  0  0  0  0  0  0  0  0  0  0
    5.0298  -10.8351   22.2338 C   0  0  0  0  0  0  0  0  0  0  0  0
    5.4909   -9.4589   21.7580 C   0  0  0  0  0  0  0  0  0  0  0  0
    5.4738   -8.5465   22.9823 C   0  0  0  0  0  0  0  0  0  0  0  0
    4.6740   -9.3048   24.0288 C   0  0  0  0  0  0  0  0  0  0  0  0
    3.4928  -14.7360   26.4142 C   0  0  0  0  0  0  0  0  0  0  0  0
    4.7547  -15.4902   26.6573 C   0  0  0  0  0  0  0  0  0  0  0  0
  1  2  1  0
  2  3  1  0
  3  4  1  0
  4  5  1  0
  4  6  2  0
  6  7  1  0
  7  8  2  0
  7  9  1  0
  9 10  1  0
 10 11  1  0
 11 12  1  0
 12 13  1  0
 13 14  1  0
  6 15  1  0
 15 16  1  0
 15  2  2  0
 14 10  1  0
M  END
>  <inchikey>  (1048) 
NPXZXJJBOVRWEI-UHFFFAOYSA-N

>  <tags>  (1048) 
fragmenstein_placed,CpKRS_FrAncestor_bulkdock_iter2

>  <ref_pdb>  (1048) 
x0502c

>  <energy_score>  (1048) 
-10.383938

>  <distance_score>  (1048) 
0.333413

>  <HIPPO Pose ID>  (1048) 
57878

>  <ref_mols>  (1048) 
x0421c

>  <smiles>  (1048) 
Cc1[nH]c(C)c(C(=O)NC2CCCC2)c1C

>  <HIPPO Compound ID>  (1048) 
37520

>  <alias>  (1048) 
NPXZXJJBOVRWEI-UHFFFAOYSA-N-P13

>  <subsites>  (1048) 


>  <placement_batch>  (1048) 
CpKRS_FrAncestor_bulkdock_iter2

>  <name>  (1048) 
NPXZXJJBOVRWEI-UHFFFAOYSA-N-P13

$$$$
ZOHAERFOGKKJFC-UHFFFAOYSA-N-P46
     RDKit          3D

 15 16  0  0  0  0  0  0  0  0999 V2000
    4.7482  -15.5975   26.9100 C   0  0  0  0  0  0  0  0  0  0  0  0
    3.5307  -14.7747   26.7604 C   0  0  0  0  0  0  0  0  0  0  0  0
    2.4232  -15.0007   27.5222 N   0  0  0  0  0  0  0  0  0  0  0  0
    1.4044  -14.1627   27.2769 N   0  0  0  0  0  0  0  0  0  0  0  0
    1.8757  -13.3989   26.2849 C   0  0  0  0  0  0  0  0  0  0  0  0
    3.1948  -13.7440   25.9000 C   0  0  0  0  0  0  0  0  0  0  0  0
    4.0160  -13.1717   24.8514 C   0  0  0  0  0  0  0  0  0  0  0  0
    5.2217  -13.3638   24.7328 O   0  0  0  0  0  0  0  0  0  0  0  0
    3.2866  -12.3780   24.0114 O   0  0  0  0  0  0  0  0  0  0  0  0
    3.9982  -11.8357   22.8903 C   0  0  0  0  0  0  0  0  0  0  0  0
    4.7514  -10.5831   23.2962 C   0  0  0  0  0  0  0  0  0  0  0  0
    5.2404   -9.7308   22.1299 C   0  0  0  0  0  0  0  0  0  0  0  0
    5.4269   -8.3338   22.7240 C   0  0  0  0  0  0  0  0  0  0  0  0
    4.7965   -8.3774   24.1150 C   0  0  0  0  0  0  0  0  0  0  0  0
    3.9036   -9.5988   24.0872 C   0  0  0  0  0  0  0  0  0  0  0  0
  1  2  1  0
  2  3  1  0
  3  4  1  0
  4  5  2  0
  5  6  1  0
  6  7  1  0
  7  8  2  0
  7  9  1  0
  9 10  1  0
 10 11  1  0
 11 12  1  0
 12 13  1  0
 13 14  1  0
 14 15  1  0
  6  2  2  0
 15 11  1  0
M  END
>  <inchikey>  (1049) 
ZOHAERFOGKKJFC-UHFFFAOYSA-N

>  <tags>  (1049) 
fragmenstein_placed,CpKRS_FrAncestor_bulkdock_iter2

>  <ref_pdb>  (1049) 
x0502c

>  <energy_score>  (1049) 
-28.785188

>  <distance_score>  (1049) 
0.350035

>  <HIPPO Pose ID>  (1049) 
57885

>  <ref_mols>  (1049) 
x0502c

>  <smiles>  (1049) 
Cc1[nH]ncc1C(=O)OCC1CCCC1

>  <HIPPO Compound ID>  (1049) 
37521

>  <alias>  (1049) 
ZOHAERFOGKKJFC-UHFFFAOYSA-N-P46

>  <subsites>  (1049) 


>  <placement_batch>  (1049) 
CpKRS_FrAncestor_bulkdock_iter2

>  <name>  (1049) 
ZOHAERFOGKKJFC-UHFFFAOYSA-N-P46

$$$$
IHZLVCSOIWFMIW-UHFFFAOYSA-N-P13
     RDKit          3D

 15 16  0  0  0  0  0  0  0  0999 V2000
    1.7608  -15.4799   28.4341 C   0  0  0  0  0  0  0  0  0  0  0  0
    2.2516  -14.7812   27.2272 C   0  0  0  0  0  0  0  0  0  0  0  0
    1.5275  -13.8213   26.5881 N   0  0  0  0  0  0  0  0  0  0  0  0
    2.2036  -13.1637   25.6391 N   0  0  0  0  0  0  0  0  0  0  0  0
    3.4058  -13.7835   25.6093 C   0  0  0  0  0  0  0  0  0  0  0  0
    4.5290  -13.2584   24.7941 C   0  0  0  0  0  0  0  0  0  0  0  0
    5.4713  -13.8986   24.5550 O   0  0  0  0  0  0  0  0  0  0  0  0
    4.2180  -11.7894   24.4781 N   0  0  0  0  0  0  0  0  0  0  0  0
    4.9580  -10.8221   23.7198 C   0  0  1  0  0  0  0  0  0  0  0  0
    4.7092  -10.9524   22.2281 C   0  0  0  0  0  0  0  0  0  0  0  0
    5.3909   -9.7635   21.5804 C   0  0  0  0  0  0  0  0  0  0  0  0
    5.1273   -8.3710   22.7081 S   0  0  0  0  0  0  0  0  0  0  0  0
    4.6038   -9.3911   24.1095 C   0  0  0  0  0  0  0  0  0  0  0  0
    3.4600  -14.8459   26.5602 C   0  0  0  0  0  0  0  0  0  0  0  0
    4.6158  -15.7251   26.8569 C   0  0  0  0  0  0  0  0  0  0  0  0
  1  2  1  0
  2  3  1  0
  3  4  1  0
  4  5  2  0
  5  6  1  0
  6  7  2  0
  6  8  1  0
  9  8  1  1
  9 10  1  0
 10 11  1  0
 11 12  1  0
 12 13  1  0
  5 14  1  0
 14 15  1  0
 14  2  2  0
 13  9  1  0
M  END
>  <inchikey>  (1050) 
IHZLVCSOIWFMIW-UHFFFAOYSA-N

>  <tags>  (1050) 
fragmenstein_placed,CpKRS_FrAncestor_bulkdock_iter2

>  <ref_pdb>  (1050) 
x0502c

>  <energy_score>  (1050) 
-23.322499

>  <distance_score>  (1050) 
0.35218

>  <HIPPO Pose ID>  (1050) 
57888

>  <ref_mols>  (1050) 
x0421c

>  <smiles>  (1050) 
Cc1[nH]nc(C(=O)NC2CCSC2)c1C

>  <HIPPO Compound ID>  (1050) 
37522

>  <alias>  (1050) 
IHZLVCSOIWFMIW-UHFFFAOYSA-N-P13

>  <subsites>  (1050) 


>  <placement_batch>  (1050) 
CpKRS_FrAncestor_bulkdock_iter2

>  <name>  (1050) 
IHZLVCSOIWFMIW-UHFFFAOYSA-N-P13

$$$$
URLYBEQWLDTAML-UHFFFAOYSA-N-P11
     RDKit          3D

 18 19  0  0  0  0  0  0  0  0999 V2000
    1.6378  -16.2662   27.8285 C   0  0  0  0  0  0  0  0  0  0  0  0
    2.1696  -15.1828   26.9786 C   0  0  0  0  0  0  0  0  0  0  0  0
    1.3571  -14.3057   26.3363 N   0  0  0  0  0  0  0  0  0  0  0  0
    2.0043  -13.3826   25.6295 N   0  0  0  0  0  0  0  0  0  0  0  0
    3.3055  -13.7489   25.7058 C   0  0  0  0  0  0  0  0  0  0  0  0
    4.3420  -13.0182   24.9548 C   0  0  0  0  0  0  0  0  0  0  0  0
    5.4940  -13.4126   24.8162 O   0  0  0  0  0  0  0  0  0  0  0  0
    3.8905  -11.8199   24.4608 O   0  0  0  0  0  0  0  0  0  0  0  0
    4.8623  -10.9954   23.8244 C   0  0  0  0  0  0  0  0  0  0  0  0
    4.4317   -9.5355   23.9126 C   0  0  0  0  0  0  0  0  0  0  0  0
    5.2574   -8.8697   22.8277 C   0  0  0  0  0  0  0  0  0  0  0  0
    5.3250   -9.9003   21.7059 C   0  0  0  0  0  0  0  0  0  0  0  0
    4.9223  -11.2413   22.3205 C   0  0  0  0  0  0  0  0  0  0  0  0
    3.4658  -14.8603   26.5988 C   0  0  0  0  0  0  0  0  0  0  0  0
    4.7045  -15.5437   27.0525 C   0  0  0  0  0  0  0  0  0  0  0  0
    5.8646  -14.9014   26.7915 F   0  0  0  0  0  0  0  0  0  0  0  0
    4.6769  -15.7300   28.4050 F   0  0  0  0  0  0  0  0  0  0  0  0
    4.8382  -16.7965   26.5481 F   0  0  0  0  0  0  0  0  0  0  0  0
  1  2  1  0
  2  3  1  0
  3  4  1  0
  4  5  2  0
  5  6  1  0
  6  7  2  0
  6  8  1  0
  8  9  1  0
  9 10  1  0
 10 11  1  0
 11 12  1  0
 12 13  1  0
  5 14  1  0
 14 15  1  0
 15 16  1  0
 15 17  1  0
 15 18  1  0
 14  2  2  0
 13  9  1  0
M  END
>  <inchikey>  (1051) 
URLYBEQWLDTAML-UHFFFAOYSA-N

>  <tags>  (1051) 
fragmenstein_placed,CpKRS_FrAncestor_bulkdock_iter2

>  <ref_pdb>  (1051) 
x0502c

>  <energy_score>  (1051) 
-33.160528

>  <distance_score>  (1051) 
0.43097

>  <HIPPO Pose ID>  (1051) 
57890

>  <ref_mols>  (1051) 
x0421a

>  <smiles>  (1051) 
Cc1[nH]nc(C(=O)OC2CCCC2)c1C(F)(F)F

>  <HIPPO Compound ID>  (1051) 
37524

>  <alias>  (1051) 
URLYBEQWLDTAML-UHFFFAOYSA-N-P11

>  <subsites>  (1051) 


>  <placement_batch>  (1051) 
CpKRS_FrAncestor_bulkdock_iter2

>  <name>  (1051) 
URLYBEQWLDTAML-UHFFFAOYSA-N-P11

$$$$
OWGYAADWTAOWAG-UHFFFAOYSA-N-P55
     RDKit          3D

 17 18  0  0  0  0  0  0  0  0999 V2000
    1.8265  -15.4285   29.1124 C   0  0  0  0  0  0  0  0  0  0  0  0
    2.2628  -14.9079   27.8067 C   0  0  0  0  0  0  0  0  0  0  0  0
    1.4649  -14.1077   27.0488 N   0  0  0  0  0  0  0  0  0  0  0  0
    2.0662  -13.6270   25.9513 N   0  0  0  0  0  0  0  0  0  0  0  0
    3.2841  -14.2193   25.9648 C   0  0  0  0  0  0  0  0  0  0  0  0
    4.2929  -13.9448   24.9158 C   0  0  0  0  0  0  0  0  0  0  0  0
    5.4148  -14.2282   25.0393 O   0  0  0  0  0  0  0  0  0  0  0  0
    3.5718  -13.2299   23.7758 N   0  0  0  0  0  0  0  0  0  0  0  0
    4.0811  -12.6294   22.5940 C   0  0  0  0  0  0  0  0  0  0  0  0
    4.2998  -11.1852   22.8809 C   0  0  0  0  0  0  0  0  0  0  0  0
    3.9135  -10.4445   23.9858 C   0  0  0  0  0  0  0  0  0  0  0  0
    4.3389   -9.0963   23.9156 C   0  0  0  0  0  0  0  0  0  0  0  0
    4.9571   -8.8660   22.7217 C   0  0  0  0  0  0  0  0  0  0  0  0
    5.4812   -7.3639   22.1605 Cl  0  0  0  0  0  0  0  0  0  0  0  0
    5.1299  -10.2201   21.7428 S   0  0  0  0  0  0  0  0  0  0  0  0
    3.4347  -15.0613   27.0973 C   0  0  0  0  0  0  0  0  0  0  0  0
    4.6056  -15.8943   27.4254 C   0  0  0  0  0  0  0  0  0  0  0  0
  1  2  1  0
  2  3  1  0
  3  4  1  0
  4  5  2  0
  5  6  1  0
  6  7  2  0
  6  8  1  0
  8  9  1  0
  9 10  1  0
 10 11  2  0
 11 12  1  0
 12 13  2  0
 13 14  1  0
 13 15  1  0
  5 16  1  0
 16 17  1  0
 16  2  2  0
 15 10  1  0
M  END
>  <inchikey>  (1052) 
OWGYAADWTAOWAG-UHFFFAOYSA-N

>  <tags>  (1052) 
fragmenstein_placed,CpKRS_FrAncestor_bulkdock_iter2

>  <ref_pdb>  (1052) 
x0502c

>  <energy_score>  (1052) 
-24.247207

>  <distance_score>  (1052) 
0.774

>  <HIPPO Pose ID>  (1052) 
57894

>  <ref_mols>  (1052) 
x0646a

>  <smiles>  (1052) 
Cc1[nH]nc(C(=O)NCc2ccc(Cl)s2)c1C

>  <HIPPO Compound ID>  (1052) 
37525

>  <alias>  (1052) 
OWGYAADWTAOWAG-UHFFFAOYSA-N-P55

>  <subsites>  (1052) 


>  <placement_batch>  (1052) 
CpKRS_FrAncestor_bulkdock_iter2

>  <name>  (1052) 
OWGYAADWTAOWAG-UHFFFAOYSA-N-P55

$$$$
PMGVWEUUJHXPBN-UHFFFAOYSA-N-P49
     RDKit          3D

 16 16  0  0  0  0  0  0  0  0999 V2000
    4.8833  -15.6554   26.4562 C   0  0  0  0  0  0  0  0  0  0  0  0
    3.6455  -14.8473   26.3438 C   0  0  0  0  0  0  0  0  0  0  0  0
    2.6431  -15.0766   27.1994 N   0  0  0  0  0  0  0  0  0  0  0  0
    1.7297  -14.1639   26.8618 N   0  0  0  0  0  0  0  0  0  0  0  0
    0.4995  -14.1227   27.5969 C   0  0  0  0  0  0  0  0  0  0  0  0
    2.0697  -13.4060   25.7811 C   0  0  0  0  0  0  0  0  0  0  0  0
    0.9268  -12.1135   24.9634 Br  0  0  0  0  0  0  0  0  0  0  0  0
    3.3470  -13.7962   25.4154 C   0  0  0  0  0  0  0  0  0  0  0  0
    4.2403  -13.3246   24.3478 C   0  0  0  0  0  0  0  0  0  0  0  0
    5.0723  -14.0392   23.9612 O   0  0  0  0  0  0  0  0  0  0  0  0
    3.8928  -11.8897   23.9360 N   0  0  0  0  0  0  0  0  0  0  0  0
    4.5560  -10.9890   23.0236 C   0  0  0  0  0  0  0  0  0  0  0  0
    4.5321   -9.5317   23.4847 C   0  0  0  0  0  0  0  0  0  0  0  0
    5.4979   -8.6620   22.7146 C   0  0  0  0  0  0  0  0  0  0  0  0
    3.2791   -9.0131   23.3230 F   0  0  0  0  0  0  0  0  0  0  0  0
    4.8181   -9.4488   24.8095 F   0  0  0  0  0  0  0  0  0  0  0  0
  1  2  1  0
  2  3  2  0
  3  4  1  0
  4  5  1  0
  4  6  1  0
  6  7  1  0
  6  8  2  0
  8  9  1  0
  9 10  2  0
  9 11  1  0
 11 12  1  0
 12 13  1  0
 13 14  1  0
 13 15  1  0
 13 16  1  0
  8  2  1  0
M  END
>  <inchikey>  (1053) 
PMGVWEUUJHXPBN-UHFFFAOYSA-N

>  <tags>  (1053) 
fragmenstein_placed,CpKRS_FrAncestor_bulkdock_iter2

>  <ref_pdb>  (1053) 
x0502c

>  <energy_score>  (1053) 
-3.260196

>  <distance_score>  (1053) 
0.591771

>  <HIPPO Pose ID>  (1053) 
57900

>  <ref_mols>  (1053) 
x0504b

>  <smiles>  (1053) 
Cc1nn(C)c(Br)c1C(=O)NCC(C)(F)F

>  <HIPPO Compound ID>  (1053) 
37527

>  <alias>  (1053) 
PMGVWEUUJHXPBN-UHFFFAOYSA-N-P49

>  <subsites>  (1053) 


>  <placement_batch>  (1053) 
CpKRS_FrAncestor_bulkdock_iter2

>  <name>  (1053) 
PMGVWEUUJHXPBN-UHFFFAOYSA-N-P49

$$$$
PBXIBDHNWVTLQO-UHFFFAOYSA-N-P48
     RDKit          3D

 16 16  0  0  0  0  0  0  0  0999 V2000
    4.5095  -15.8459   27.2400 C   0  0  0  0  0  0  0  0  0  0  0  0
    3.3437  -14.9912   26.9288 C   0  0  0  0  0  0  0  0  0  0  0  0
    2.2495  -15.0439   27.6962 N   0  0  0  0  0  0  0  0  0  0  0  0
    1.4030  -14.1853   27.1036 N   0  0  0  0  0  0  0  0  0  0  0  0
    0.0909  -14.0137   27.6693 C   0  0  0  0  0  0  0  0  0  0  0  0
    1.9029  -13.6321   25.9610 C   0  0  0  0  0  0  0  0  0  0  0  0
    0.9191  -12.5762   24.7120 Br  0  0  0  0  0  0  0  0  0  0  0  0
    3.2081  -14.0770   25.8487 C   0  0  0  0  0  0  0  0  0  0  0  0
    4.2108  -13.8106   24.8208 C   0  0  0  0  0  0  0  0  0  0  0  0
    4.9004  -14.6743   24.4601 O   0  0  0  0  0  0  0  0  0  0  0  0
    4.0820  -12.3683   24.3213 N   0  0  0  0  0  0  0  0  0  0  0  0
    4.7090  -11.7030   23.2036 C   0  0  1  0  0  0  0  0  0  0  0  0
    3.7950  -11.8714   22.0144 C   0  0  0  0  0  0  0  0  0  0  0  0
    5.0375  -10.2289   23.4227 C   0  0  0  0  0  0  0  0  0  0  0  0
    3.9226   -9.5334   23.7746 F   0  0  0  0  0  0  0  0  0  0  0  0
    5.4766   -9.6669   22.2656 F   0  0  0  0  0  0  0  0  0  0  0  0
  1  2  1  0
  2  3  2  0
  3  4  1  0
  4  5  1  0
  4  6  1  0
  6  7  1  0
  6  8  2  0
  8  9  1  0
  9 10  2  0
  9 11  1  0
 11 12  1  0
 12 13  1  6
 12 14  1  0
 14 15  1  0
 14 16  1  0
  8  2  1  0
M  END
>  <inchikey>  (1054) 
PBXIBDHNWVTLQO-UHFFFAOYSA-N

>  <tags>  (1054) 
fragmenstein_placed,CpKRS_FrAncestor_bulkdock_iter2

>  <ref_pdb>  (1054) 
x0502c

>  <energy_score>  (1054) 
-2.943322

>  <distance_score>  (1054) 
0.641017

>  <HIPPO Pose ID>  (1054) 
57902

>  <ref_mols>  (1054) 
x0504a

>  <smiles>  (1054) 
Cc1nn(C)c(Br)c1C(=O)NC(C)C(F)F

>  <HIPPO Compound ID>  (1054) 
37528

>  <alias>  (1054) 
PBXIBDHNWVTLQO-UHFFFAOYSA-N-P48

>  <subsites>  (1054) 


>  <placement_batch>  (1054) 
CpKRS_FrAncestor_bulkdock_iter2

>  <name>  (1054) 
PBXIBDHNWVTLQO-UHFFFAOYSA-N-P48

$$$$
RBKXMMSTGAYSFK-UHFFFAOYSA-N-P48
     RDKit          3D

 15 15  0  0  0  0  0  0  0  0999 V2000
    4.6091  -15.6762   26.9893 C   0  0  0  0  0  0  0  0  0  0  0  0
    3.3907  -14.8892   26.6768 C   0  0  0  0  0  0  0  0  0  0  0  0
    2.3196  -15.0044   27.4699 N   0  0  0  0  0  0  0  0  0  0  0  0
    1.4186  -14.1828   26.9145 N   0  0  0  0  0  0  0  0  0  0  0  0
    0.1273  -14.0538   27.5409 C   0  0  0  0  0  0  0  0  0  0  0  0
    1.8482  -13.6133   25.7488 C   0  0  0  0  0  0  0  0  0  0  0  0
    0.7399  -12.5913   24.5728 Br  0  0  0  0  0  0  0  0  0  0  0  0
    3.1740  -13.9881   25.5835 C   0  0  0  0  0  0  0  0  0  0  0  0
    4.1713  -13.6512   24.5495 C   0  0  0  0  0  0  0  0  0  0  0  0
    5.1127  -14.3249   24.4390 O   0  0  0  0  0  0  0  0  0  0  0  0
    3.7539  -12.3941   23.7795 N   0  0  0  0  0  0  0  0  0  0  0  0
    4.3600  -11.7474   22.6410 C   0  0  0  0  0  0  0  0  0  0  0  0
    4.9488  -10.3805   22.9558 C   0  0  0  0  0  0  0  0  0  0  0  0
    5.3545   -9.7834   21.8061 F   0  0  0  0  0  0  0  0  0  0  0  0
    3.9944   -9.5622   23.4808 F   0  0  0  0  0  0  0  0  0  0  0  0
  1  2  1  0
  2  3  2  0
  3  4  1  0
  4  5  1  0
  4  6  1  0
  6  7  1  0
  6  8  2  0
  8  9  1  0
  9 10  2  0
  9 11  1  0
 11 12  1  0
 12 13  1  0
 13 14  1  0
 13 15  1  0
  8  2  1  0
M  END
>  <inchikey>  (1055) 
RBKXMMSTGAYSFK-UHFFFAOYSA-N

>  <tags>  (1055) 
fragmenstein_placed,CpKRS_FrAncestor_bulkdock_iter2

>  <ref_pdb>  (1055) 
x0502c

>  <energy_score>  (1055) 
-15.024019

>  <distance_score>  (1055) 
0.525317

>  <HIPPO Pose ID>  (1055) 
57905

>  <ref_mols>  (1055) 
x0504a

>  <smiles>  (1055) 
Cc1nn(C)c(Br)c1C(=O)NCC(F)F

>  <HIPPO Compound ID>  (1055) 
37529

>  <alias>  (1055) 
RBKXMMSTGAYSFK-UHFFFAOYSA-N-P48

>  <subsites>  (1055) 


>  <placement_batch>  (1055) 
CpKRS_FrAncestor_bulkdock_iter2

>  <name>  (1055) 
RBKXMMSTGAYSFK-UHFFFAOYSA-N-P48

$$$$
QBLMTDZILDQEID-UHFFFAOYSA-N-P64
     RDKit          3D

 20 21  0  0  0  0  0  0  0  0999 V2000
    5.0134   -9.2581   21.0252 C   0  0  0  0  0  0  0  0  0  0  0  0
    5.0913   -8.9730   22.4573 C   0  0  0  0  0  0  0  0  0  0  0  0
    5.3020   -7.6998   22.8274 N   0  0  0  0  0  0  0  0  0  0  0  0
    5.6596   -7.8116   24.1105 N   0  0  0  0  0  0  0  0  0  0  0  0
    6.2280   -6.7077   24.8396 C   0  0  0  0  0  0  0  0  0  0  0  0
    5.5768   -9.0845   24.5658 C   0  0  0  0  0  0  0  0  0  0  0  0
    5.1651   -9.9009   23.5345 C   0  0  0  0  0  0  0  0  0  0  0  0
    5.1724  -11.3982   23.5543 C   0  0  2  0  0  0  0  0  0  0  0  0
    5.1721  -12.1264   22.2214 C   0  0  0  0  0  0  0  0  0  0  0  0
    4.2098  -12.0316   24.3991 N   0  0  0  0  0  0  0  0  0  0  0  0
    4.1521  -13.4735   24.9470 C   0  0  0  0  0  0  0  0  0  0  0  0
    4.8388  -14.3907   24.7329 O   0  0  0  0  0  0  0  0  0  0  0  0
    2.9770  -13.6565   25.7811 C   0  0  0  0  0  0  0  0  0  0  0  0
    3.1348  -14.4144   26.9091 O   0  0  0  0  0  0  0  0  0  0  0  0
    1.9306  -14.4962   27.5166 C   0  0  0  0  0  0  0  0  0  0  0  0
    0.9854  -13.8200   26.7858 C   0  0  0  0  0  0  0  0  0  0  0  0
    1.6404  -13.3051   25.6263 C   0  0  0  0  0  0  0  0  0  0  0  0
    0.9975  -12.6219   24.4451 C   0  0  0  0  0  0  0  0  0  0  0  0
   -0.1481  -13.4544   23.8604 C   0  0  0  0  0  0  0  0  0  0  0  0
    0.5092  -11.2159   24.7882 C   0  0  0  0  0  0  0  0  0  0  0  0
  1  2  1  0
  2  3  2  0
  3  4  1  0
  4  5  1  0
  4  6  1  0
  6  7  2  0
  7  8  1  0
  8  9  1  6
  8 10  1  0
 10 11  1  0
 11 12  2  0
 11 13  1  0
 13 14  1  0
 14 15  1  0
 15 16  2  0
 16 17  1  0
 17 18  1  0
 18 19  1  0
 18 20  1  0
  7  2  1  0
 17 13  2  0
M  END
>  <inchikey>  (1056) 
QBLMTDZILDQEID-UHFFFAOYSA-N

>  <tags>  (1056) 
fragmenstein_placed,CpKRS_FrAncestor_bulkdock_iter2

>  <ref_pdb>  (1056) 
x0502c

>  <energy_score>  (1056) 
-4.150793

>  <distance_score>  (1056) 
0.927999

>  <HIPPO Pose ID>  (1056) 
57925

>  <ref_mols>  (1056) 
x0787b

>  <smiles>  (1056) 
Cc1nn(C)cc1C(C)NC(=O)c1occc1C(C)C

>  <HIPPO Compound ID>  (1056) 
37535

>  <alias>  (1056) 
QBLMTDZILDQEID-UHFFFAOYSA-N-P64

>  <subsites>  (1056) 


>  <placement_batch>  (1056) 
CpKRS_FrAncestor_bulkdock_iter2

>  <name>  (1056) 
QBLMTDZILDQEID-UHFFFAOYSA-N-P64

$$$$
XIJYOELRIUAIRI-UHFFFAOYSA-N-P15
     RDKit          3D

 18 19  0  0  0  0  0  0  0  0999 V2000
    4.1316  -24.2371   16.6482 C   0  0  0  0  0  0  0  0  0  0  0  0
    3.5048  -25.0183   17.7226 C   0  0  0  0  0  0  0  0  0  0  0  0
    4.0622  -25.0068   18.9433 N   0  0  0  0  0  0  0  0  0  0  0  0
    3.2380  -25.7735   19.6698 N   0  0  0  0  0  0  0  0  0  0  0  0
    3.4674  -25.9408   21.0807 C   0  0  0  0  0  0  0  0  0  0  0  0
    2.2336  -26.3281   18.9441 C   0  0  0  0  0  0  0  0  0  0  0  0
    2.3501  -25.8458   17.6540 C   0  0  0  0  0  0  0  0  0  0  0  0
    1.4474  -26.2324   16.5397 C   0  0  0  0  0  0  0  0  0  0  0  0
    1.4794  -25.3715   15.3948 N   0  0  0  0  0  0  0  0  0  0  0  0
    2.0429  -25.6067   13.9824 C   0  0  0  0  0  0  0  0  0  0  0  0
    2.6397  -26.5098   13.5472 O   0  0  0  0  0  0  0  0  0  0  0  0
    1.6659  -24.5278   12.9917 C   0  0  0  0  0  0  0  0  0  0  0  0
    2.0987  -24.6924   11.6620 C   0  0  0  0  0  0  0  0  0  0  0  0
    1.6975  -23.8137   10.6530 C   0  0  0  0  0  0  0  0  0  0  0  0
    0.9071  -22.7108   10.9574 C   0  0  0  0  0  0  0  0  0  0  0  0
    0.4729  -22.5283   12.2671 C   0  0  0  0  0  0  0  0  0  0  0  0
    0.8324  -23.4422   13.2650 C   0  0  0  0  0  0  0  0  0  0  0  0
    0.3188  -23.2542   14.4894 F   0  0  0  0  0  0  0  0  0  0  0  0
  1  2  1  0
  2  3  2  0
  3  4  1  0
  4  5  1  0
  4  6  1  0
  6  7  2  0
  7  8  1  0
  8  9  1  0
  9 10  1  0
 10 11  2  0
 10 12  1  0
 12 13  2  0
 13 14  1  0
 14 15  2  0
 15 16  1  0
 16 17  2  0
 17 18  1  0
  7  2  1  0
 17 12  1  0
M  END
>  <inchikey>  (1057) 
XIJYOELRIUAIRI-UHFFFAOYSA-N

>  <tags>  (1057) 
fragmenstein_placed,CpKRS_FrAncestor_bulkdock_iter2

>  <ref_pdb>  (1057) 
x0502c

>  <energy_score>  (1057) 
-2.328386

>  <distance_score>  (1057) 
0.950012

>  <HIPPO Pose ID>  (1057) 
57929

>  <ref_mols>  (1057) 
x0426b

>  <smiles>  (1057) 
Cc1nn(C)cc1CNC(=O)c1ccccc1F

>  <HIPPO Compound ID>  (1057) 
37537

>  <alias>  (1057) 
XIJYOELRIUAIRI-UHFFFAOYSA-N-P15

>  <subsites>  (1057) 


>  <placement_batch>  (1057) 
CpKRS_FrAncestor_bulkdock_iter2

>  <name>  (1057) 
XIJYOELRIUAIRI-UHFFFAOYSA-N-P15

$$$$
YRBNURGOWMIHDO-UHFFFAOYSA-N-P16
     RDKit          3D

 17 18  0  0  0  0  0  0  0  0999 V2000
    5.1240   -9.9958   20.6911 C   0  0  0  0  0  0  0  0  0  0  0  0
    4.6618   -9.8854   22.0581 C   0  0  0  0  0  0  0  0  0  0  0  0
    4.6219   -8.6700   22.6064 N   0  0  0  0  0  0  0  0  0  0  0  0
    4.5071   -8.9505   23.9027 N   0  0  0  0  0  0  0  0  0  0  0  0
    4.8779   -7.9449   24.8626 C   0  0  0  0  0  0  0  0  0  0  0  0
    4.1027  -10.2321   24.1228 C   0  0  0  0  0  0  0  0  0  0  0  0
    4.3158  -10.9228   22.9495 C   0  0  0  0  0  0  0  0  0  0  0  0
    4.2769  -12.3863   22.6584 C   0  0  0  0  0  0  0  0  0  0  0  0
    3.8007  -13.1139   23.7952 N   0  0  0  0  0  0  0  0  0  0  0  0
    4.5663  -13.7523   24.9640 C   0  0  0  0  0  0  0  0  0  0  0  0
    5.7111  -13.8551   25.1499 O   0  0  0  0  0  0  0  0  0  0  0  0
    3.6321  -14.2711   26.0187 C   0  0  0  0  0  0  0  0  0  0  0  0
    2.4239  -13.6273   26.3265 C   0  0  0  0  0  0  0  0  0  0  0  0
    1.6452  -14.0691   27.3990 C   0  0  0  0  0  0  0  0  0  0  0  0
    2.0739  -15.1437   28.1758 C   0  0  0  0  0  0  0  0  0  0  0  0
    3.2632  -15.8002   27.8647 C   0  0  0  0  0  0  0  0  0  0  0  0
    4.0441  -15.3623   26.7938 C   0  0  0  0  0  0  0  0  0  0  0  0
  1  2  1  0
  2  3  2  0
  3  4  1  0
  4  5  1  0
  4  6  1  0
  6  7  2  0
  7  8  1  0
  8  9  1  0
  9 10  1  0
 10 11  2  0
 10 12  1  0
 12 13  2  0
 13 14  1  0
 14 15  2  0
 15 16  1  0
 16 17  2  0
  7  2  1  0
 17 12  1  0
M  END
>  <inchikey>  (1058) 
YRBNURGOWMIHDO-UHFFFAOYSA-N

>  <tags>  (1058) 
fragmenstein_placed,CpKRS_FrAncestor_bulkdock_iter2

>  <ref_pdb>  (1058) 
x0502c

>  <energy_score>  (1058) 
-3.046405

>  <distance_score>  (1058) 
0.841324

>  <HIPPO Pose ID>  (1058) 
57930

>  <ref_mols>  (1058) 
x0426a

>  <smiles>  (1058) 
Cc1nn(C)cc1CNC(=O)c1ccccc1

>  <HIPPO Compound ID>  (1058) 
37538

>  <alias>  (1058) 
YRBNURGOWMIHDO-UHFFFAOYSA-N-P16

>  <subsites>  (1058) 


>  <placement_batch>  (1058) 
CpKRS_FrAncestor_bulkdock_iter2

>  <name>  (1058) 
YRBNURGOWMIHDO-UHFFFAOYSA-N-P16

$$$$
GVZBEVAGPVGOMT-UHFFFAOYSA-N-P16
     RDKit          3D

 19 20  0  0  0  0  0  0  0  0999 V2000
    5.0054   -9.8247   20.5823 C   0  0  0  0  0  0  0  0  0  0  0  0
    4.6953   -9.7863   21.9924 C   0  0  0  0  0  0  0  0  0  0  0  0
    4.7116   -8.5942   22.5926 N   0  0  0  0  0  0  0  0  0  0  0  0
    4.9269   -8.9263   23.8646 N   0  0  0  0  0  0  0  0  0  0  0  0
    5.4371   -7.9279   24.7663 C   0  0  0  0  0  0  0  0  0  0  0  0
    4.7410  -10.2529   24.0909 C   0  0  0  0  0  0  0  0  0  0  0  0
    4.5730  -10.8748   22.8758 C   0  0  0  0  0  0  0  0  0  0  0  0
    4.4902  -12.3288   22.5485 C   0  0  0  0  0  0  0  0  0  0  0  0
    3.9430  -13.0521   23.6597 N   0  0  0  0  0  0  0  0  0  0  0  0
    4.6271  -13.6409   24.8996 C   0  0  0  0  0  0  0  0  0  0  0  0
    5.7543  -13.7013   25.1820 O   0  0  0  0  0  0  0  0  0  0  0  0
    3.6484  -14.1874   25.8912 C   0  0  0  0  0  0  0  0  0  0  0  0
    4.0258  -15.3462   26.5848 C   0  0  0  0  0  0  0  0  0  0  0  0
    5.1159  -16.0447   26.2310 F   0  0  0  0  0  0  0  0  0  0  0  0
    3.2775  -15.8339   27.6572 C   0  0  0  0  0  0  0  0  0  0  0  0
    2.1284  -15.1686   28.0622 C   0  0  0  0  0  0  0  0  0  0  0  0
    1.7040  -14.0481   27.3539 C   0  0  0  0  0  0  0  0  0  0  0  0
    2.4568  -13.5516   26.2755 C   0  0  0  0  0  0  0  0  0  0  0  0
    1.8303  -12.1123   25.5430 Cl  0  0  0  0  0  0  0  0  0  0  0  0
  1  2  1  0
  2  3  2  0
  3  4  1  0
  4  5  1  0
  4  6  1  0
  6  7  2  0
  7  8  1  0
  8  9  1  0
  9 10  1  0
 10 11  2  0
 10 12  1  0
 12 13  2  0
 13 14  1  0
 13 15  1  0
 15 16  2  0
 16 17  1  0
 17 18  2  0
 18 19  1  0
  7  2  1  0
 18 12  1  0
M  END
>  <inchikey>  (1059) 
GVZBEVAGPVGOMT-UHFFFAOYSA-N

>  <tags>  (1059) 
fragmenstein_placed,CpKRS_FrAncestor_bulkdock_iter2

>  <ref_pdb>  (1059) 
x0502c

>  <energy_score>  (1059) 
-8.580715

>  <distance_score>  (1059) 
0.727444

>  <HIPPO Pose ID>  (1059) 
57936

>  <ref_mols>  (1059) 
x0426a

>  <smiles>  (1059) 
Cc1nn(C)cc1CNC(=O)c1c(F)cccc1Cl

>  <HIPPO Compound ID>  (1059) 
37541

>  <alias>  (1059) 
GVZBEVAGPVGOMT-UHFFFAOYSA-N-P16

>  <subsites>  (1059) 


>  <placement_batch>  (1059) 
CpKRS_FrAncestor_bulkdock_iter2

>  <name>  (1059) 
GVZBEVAGPVGOMT-UHFFFAOYSA-N-P16

$$$$
NIYKEZIDZFLYKJ-UHFFFAOYSA-N-P64
     RDKit          3D

 17 18  0  0  0  0  0  0  0  0999 V2000
    5.0142   -8.9181   20.8928 C   0  0  0  0  0  0  0  0  0  0  0  0
    5.2493   -8.8254   22.3214 C   0  0  0  0  0  0  0  0  0  0  0  0
    5.5287   -7.6266   22.8396 N   0  0  0  0  0  0  0  0  0  0  0  0
    5.8517   -7.9144   24.1020 N   0  0  0  0  0  0  0  0  0  0  0  0
    6.3535   -6.8899   24.9805 C   0  0  0  0  0  0  0  0  0  0  0  0
    5.7061   -9.2365   24.3872 C   0  0  0  0  0  0  0  0  0  0  0  0
    5.2606   -9.8769   23.2573 C   0  0  0  0  0  0  0  0  0  0  0  0
    4.9744  -11.3028   22.9684 C   0  0  0  0  0  0  0  0  0  0  0  0
    4.3903  -11.9818   24.0789 N   0  0  0  0  0  0  0  0  0  0  0  0
    4.5506  -13.4368   24.5591 C   0  0  0  0  0  0  0  0  0  0  0  0
    5.2435  -14.2878   24.1695 O   0  0  0  0  0  0  0  0  0  0  0  0
    3.5742  -13.7319   25.6112 C   0  0  0  0  0  0  0  0  0  0  0  0
    2.3722  -13.1551   25.9927 C   0  0  0  0  0  0  0  0  0  0  0  0
    1.8730  -13.9199   27.0755 C   0  0  0  0  0  0  0  0  0  0  0  0
    2.7887  -14.9211   27.2897 C   0  0  0  0  0  0  0  0  0  0  0  0
    2.6615  -16.2410   28.6463 Br  0  0  0  0  0  0  0  0  0  0  0  0
    3.8072  -14.8297   26.4013 O   0  0  0  0  0  0  0  0  0  0  0  0
  1  2  1  0
  2  3  2  0
  3  4  1  0
  4  5  1  0
  4  6  1  0
  6  7  2  0
  7  8  1  0
  8  9  1  0
  9 10  1  0
 10 11  2  0
 10 12  1  0
 12 13  2  0
 13 14  1  0
 14 15  2  0
 15 16  1  0
 15 17  1  0
  7  2  1  0
 17 12  1  0
M  END
>  <inchikey>  (1060) 
NIYKEZIDZFLYKJ-UHFFFAOYSA-N

>  <tags>  (1060) 
fragmenstein_placed,CpKRS_FrAncestor_bulkdock_iter2

>  <ref_pdb>  (1060) 
x0502c

>  <energy_score>  (1060) 
-6.528065

>  <distance_score>  (1060) 
0.514712

>  <HIPPO Pose ID>  (1060) 
57943

>  <ref_mols>  (1060) 
x0787b

>  <smiles>  (1060) 
Cc1nn(C)cc1CNC(=O)c1ccc(Br)o1

>  <HIPPO Compound ID>  (1060) 
37544

>  <alias>  (1060) 
NIYKEZIDZFLYKJ-UHFFFAOYSA-N-P64

>  <subsites>  (1060) 


>  <placement_batch>  (1060) 
CpKRS_FrAncestor_bulkdock_iter2

>  <name>  (1060) 
NIYKEZIDZFLYKJ-UHFFFAOYSA-N-P64

$$$$
HWGBOTZSHDRHLK-UHFFFAOYSA-N-P30
     RDKit          3D

 18 19  0  0  0  0  0  0  0  0999 V2000
    5.2914  -15.2346   26.9435 C   0  0  0  0  0  0  0  0  0  0  0  0
    3.9380  -14.6088   26.9814 C   0  0  0  0  0  0  0  0  0  0  0  0
    3.0770  -15.1654   27.8750 N   0  0  0  0  0  0  0  0  0  0  0  0
    1.7937  -14.7332   27.9483 N   0  0  0  0  0  0  0  0  0  0  0  0
    1.3820  -13.7717   27.1050 C   0  0  0  0  0  0  0  0  0  0  0  0
    2.2079  -13.1611   26.1939 C   0  0  0  0  0  0  0  0  0  0  0  0
    3.5361  -13.5711   26.1449 C   0  0  0  0  0  0  0  0  0  0  0  0
    4.4307  -12.9590   25.1221 C   0  0  0  0  0  0  0  0  0  0  0  0
    5.1150  -13.6658   24.4951 O   0  0  0  0  0  0  0  0  0  0  0  0
    4.1987  -11.4290   25.0138 N   0  0  0  0  0  0  0  0  0  0  0  0
    4.6722  -10.5064   24.0842 C   0  0  0  0  0  0  0  0  0  0  0  0
    5.0133  -10.9654   22.8113 C   0  0  0  0  0  0  0  0  0  0  0  0
    5.3873  -10.0601   21.8216 C   0  0  0  0  0  0  0  0  0  0  0  0
    5.5383   -8.7137   22.1199 C   0  0  0  0  0  0  0  0  0  0  0  0
    5.2690   -8.2694   23.4023 C   0  0  0  0  0  0  0  0  0  0  0  0
    5.4730   -6.9757   23.6905 F   0  0  0  0  0  0  0  0  0  0  0  0
    4.7542   -9.1363   24.3615 C   0  0  0  0  0  0  0  0  0  0  0  0
    4.2018   -8.4505   25.8353 Cl  0  0  0  0  0  0  0  0  0  0  0  0
  1  2  1  0
  2  3  2  0
  3  4  1  0
  4  5  2  0
  5  6  1  0
  6  7  2  0
  7  8  1  0
  8  9  2  0
  8 10  1  0
 10 11  1  0
 11 12  2  0
 12 13  1  0
 13 14  2  0
 14 15  1  0
 15 16  1  0
 15 17  2  0
 17 18  1  0
  7  2  1  0
 17 11  1  0
M  END
>  <inchikey>  (1061) 
HWGBOTZSHDRHLK-UHFFFAOYSA-N

>  <tags>  (1061) 
fragmenstein_placed,CpKRS_FrAncestor_bulkdock_iter2

>  <ref_pdb>  (1061) 
x0502c

>  <energy_score>  (1061) 
-14.969243

>  <distance_score>  (1061) 
0.363812

>  <HIPPO Pose ID>  (1061) 
57978

>  <ref_mols>  (1061) 
x0485a

>  <smiles>  (1061) 
Cc1nnccc1C(=O)Nc1cccc(F)c1Cl

>  <HIPPO Compound ID>  (1061) 
37554

>  <alias>  (1061) 
HWGBOTZSHDRHLK-UHFFFAOYSA-N-P30

>  <subsites>  (1061) 


>  <placement_batch>  (1061) 
CpKRS_FrAncestor_bulkdock_iter2

>  <name>  (1061) 
HWGBOTZSHDRHLK-UHFFFAOYSA-N-P30

$$$$
VRGUCGGLASTANH-UHFFFAOYSA-N-P30
     RDKit          3D

 18 19  0  0  0  0  0  0  0  0999 V2000
    5.3452  -15.3111   27.0166 C   0  0  0  0  0  0  0  0  0  0  0  0
    3.9806  -14.7115   27.0447 C   0  0  0  0  0  0  0  0  0  0  0  0
    3.1304  -15.2646   27.9510 N   0  0  0  0  0  0  0  0  0  0  0  0
    1.8424  -14.8452   28.0269 N   0  0  0  0  0  0  0  0  0  0  0  0
    1.4105  -13.9121   27.1628 C   0  0  0  0  0  0  0  0  0  0  0  0
    2.2216  -13.3171   26.2296 C   0  0  0  0  0  0  0  0  0  0  0  0
    3.5603  -13.6965   26.1924 C   0  0  0  0  0  0  0  0  0  0  0  0
    4.4700  -13.0299   25.2139 C   0  0  0  0  0  0  0  0  0  0  0  0
    5.2342  -13.6766   24.6135 O   0  0  0  0  0  0  0  0  0  0  0  0
    4.1376  -11.5156   25.1162 N   0  0  0  0  0  0  0  0  0  0  0  0
    4.5939  -10.5447   24.2271 C   0  0  0  0  0  0  0  0  0  0  0  0
    4.6799   -9.2365   24.7333 C   0  0  0  0  0  0  0  0  0  0  0  0
    5.1411   -8.1863   23.9438 C   0  0  0  0  0  0  0  0  0  0  0  0
    5.4220   -8.4177   22.6080 C   0  0  0  0  0  0  0  0  0  0  0  0
    5.2710   -9.6991   22.0913 C   0  0  0  0  0  0  0  0  0  0  0  0
    5.4544   -9.8615   20.7772 F   0  0  0  0  0  0  0  0  0  0  0  0
    4.8742  -10.7873   22.8788 C   0  0  0  0  0  0  0  0  0  0  0  0
    4.7042  -12.1194   22.2128 C   0  0  0  0  0  0  0  0  0  0  0  0
  1  2  1  0
  2  3  2  0
  3  4  1  0
  4  5  2  0
  5  6  1  0
  6  7  2  0
  7  8  1  0
  8  9  2  0
  8 10  1  0
 10 11  1  0
 11 12  2  0
 12 13  1  0
 13 14  2  0
 14 15  1  0
 15 16  1  0
 15 17  2  0
 17 18  1  0
  7  2  1  0
 17 11  1  0
M  END
>  <inchikey>  (1062) 
VRGUCGGLASTANH-UHFFFAOYSA-N

>  <tags>  (1062) 
fragmenstein_placed,CpKRS_FrAncestor_bulkdock_iter2

>  <ref_pdb>  (1062) 
x0502c

>  <energy_score>  (1062) 
-10.513798

>  <distance_score>  (1062) 
0.262532

>  <HIPPO Pose ID>  (1062) 
57981

>  <ref_mols>  (1062) 
x0485a

>  <smiles>  (1062) 
Cc1nnccc1C(=O)Nc1cccc(F)c1C

>  <HIPPO Compound ID>  (1062) 
37555

>  <alias>  (1062) 
VRGUCGGLASTANH-UHFFFAOYSA-N-P30

>  <subsites>  (1062) 


>  <placement_batch>  (1062) 
CpKRS_FrAncestor_bulkdock_iter2

>  <name>  (1062) 
VRGUCGGLASTANH-UHFFFAOYSA-N-P30

$$$$
SVDZBTNQMKJDCN-UHFFFAOYSA-N-P30
     RDKit          3D

 19 20  0  0  0  0  0  0  0  0999 V2000
    5.3374  -15.3131   27.0212 C   0  0  0  0  0  0  0  0  0  0  0  0
    3.9801  -14.6961   27.0468 C   0  0  0  0  0  0  0  0  0  0  0  0
    3.1196  -15.2430   27.9467 N   0  0  0  0  0  0  0  0  0  0  0  0
    1.8343  -14.8138   28.0139 N   0  0  0  0  0  0  0  0  0  0  0  0
    1.4163  -13.8741   27.1501 C   0  0  0  0  0  0  0  0  0  0  0  0
    2.2405  -13.2790   26.2279 C   0  0  0  0  0  0  0  0  0  0  0  0
    3.5756  -13.6720   26.1971 C   0  0  0  0  0  0  0  0  0  0  0  0
    4.4935  -13.0233   25.2152 C   0  0  0  0  0  0  0  0  0  0  0  0
    5.2426  -13.6895   24.6171 O   0  0  0  0  0  0  0  0  0  0  0  0
    4.1876  -11.5038   25.1042 N   0  0  0  0  0  0  0  0  0  0  0  0
    4.6565  -10.5496   24.2021 C   0  0  0  0  0  0  0  0  0  0  0  0
    4.8022   -9.2411   24.6841 C   0  0  0  0  0  0  0  0  0  0  0  0
    5.2643   -8.2341   23.8466 C   0  0  0  0  0  0  0  0  0  0  0  0
    5.4708   -7.0052   24.3343 F   0  0  0  0  0  0  0  0  0  0  0  0
    5.4737   -8.4718   22.5055 C   0  0  0  0  0  0  0  0  0  0  0  0
    5.2658   -9.7520   22.0209 C   0  0  0  0  0  0  0  0  0  0  0  0
    5.3733   -9.9409   20.7025 F   0  0  0  0  0  0  0  0  0  0  0  0
    4.8824  -10.8178   22.8464 C   0  0  0  0  0  0  0  0  0  0  0  0
    4.6698  -12.1587   22.2108 C   0  0  0  0  0  0  0  0  0  0  0  0
  1  2  1  0
  2  3  2  0
  3  4  1  0
  4  5  2  0
  5  6  1  0
  6  7  2  0
  7  8  1  0
  8  9  2  0
  8 10  1  0
 10 11  1  0
 11 12  2  0
 12 13  1  0
 13 14  1  0
 13 15  2  0
 15 16  1  0
 16 17  1  0
 16 18  2  0
 18 19  1  0
  7  2  1  0
 18 11  1  0
M  END
>  <inchikey>  (1063) 
SVDZBTNQMKJDCN-UHFFFAOYSA-N

>  <tags>  (1063) 
fragmenstein_placed,CpKRS_FrAncestor_bulkdock_iter2

>  <ref_pdb>  (1063) 
x0502c

>  <energy_score>  (1063) 
-8.537849

>  <distance_score>  (1063) 
0.216731

>  <HIPPO Pose ID>  (1063) 
57984

>  <ref_mols>  (1063) 
x0485a

>  <smiles>  (1063) 
Cc1nnccc1C(=O)Nc1cc(F)cc(F)c1C

>  <HIPPO Compound ID>  (1063) 
37556

>  <alias>  (1063) 
SVDZBTNQMKJDCN-UHFFFAOYSA-N-P30

>  <subsites>  (1063) 


>  <placement_batch>  (1063) 
CpKRS_FrAncestor_bulkdock_iter2

>  <name>  (1063) 
SVDZBTNQMKJDCN-UHFFFAOYSA-N-P30

$$$$
KHCFUTBKZWDRQA-UHFFFAOYSA-N-P44
     RDKit          3D

 18 19  0  0  0  0  0  0  0  0999 V2000
   -9.8588  -14.4327   49.0710 C   0  0  0  0  0  0  0  0  0  0  0  0
   -9.3539  -13.2549   48.3203 C   0  0  0  0  0  0  0  0  0  0  0  0
   -8.2691  -12.6230   48.7896 N   0  0  0  0  0  0  0  0  0  0  0  0
   -8.0734  -11.6182   47.9274 N   0  0  0  0  0  0  0  0  0  0  0  0
   -6.9649  -10.7202   48.1327 C   0  0  0  0  0  0  0  0  0  0  0  0
   -9.0190  -11.5470   46.9549 C   0  0  0  0  0  0  0  0  0  0  0  0
   -9.8818  -12.6117   47.1588 C   0  0  0  0  0  0  0  0  0  0  0  0
  -11.0829  -12.8541   46.3506 C   0  0  0  0  0  0  0  0  0  0  0  0
  -11.6445  -11.9397   45.8979 O   0  0  0  0  0  0  0  0  0  0  0  0
  -11.4068  -14.3546   46.2835 N   0  0  0  0  0  0  0  0  0  0  0  0
  -12.5443  -15.0438   45.7244 C   0  0  0  0  0  0  0  0  0  0  0  0
  -12.4180  -15.2283   44.2014 C   0  0  1  0  0  0  0  0  0  0  0  0
  -11.4517  -16.3849   43.8864 C   0  0  0  0  0  0  0  0  0  0  0  0
  -12.3118  -17.6221   43.6304 C   0  0  0  0  0  0  0  0  0  0  0  0
  -13.7631  -17.1665   43.7125 C   0  0  0  0  0  0  0  0  0  0  0  0
  -13.7236  -15.6511   43.4710 C   0  0  0  0  0  0  0  0  0  0  0  0
  -15.0004  -14.9794   43.9882 C   0  0  0  0  0  0  0  0  0  0  0  0
  -13.6098  -15.3508   41.9598 C   0  0  0  0  0  0  0  0  0  0  0  0
  1  2  1  0
  2  3  2  0
  3  4  1  0
  4  5  1  0
  4  6  1  0
  6  7  2  0
  7  8  1  0
  8  9  2  0
  8 10  1  0
 10 11  1  0
 12 11  1  1
 12 13  1  0
 13 14  1  0
 14 15  1  0
 15 16  1  0
 16 17  1  0
 16 18  1  0
  7  2  1  0
 16 12  1  0
M  END
>  <inchikey>  (1064) 
KHCFUTBKZWDRQA-UHFFFAOYSA-N

>  <tags>  (1064) 
fragmenstein_placed,CpKRS_FrAncestor_bulkdock_iter2

>  <ref_pdb>  (1064) 
x0502c

>  <energy_score>  (1064) 
-24.447772

>  <distance_score>  (1064) 
0.319793

>  <HIPPO Pose ID>  (1064) 
57988

>  <ref_mols>  (1064) 
x0502b

>  <smiles>  (1064) 
Cc1nn(C)cc1C(=O)NCC1CCCC1(C)C

>  <HIPPO Compound ID>  (1064) 
37557

>  <alias>  (1064) 
KHCFUTBKZWDRQA-UHFFFAOYSA-N-P44

>  <subsites>  (1064) 


>  <placement_batch>  (1064) 
CpKRS_FrAncestor_bulkdock_iter2

>  <name>  (1064) 
KHCFUTBKZWDRQA-UHFFFAOYSA-N-P44

$$$$
VFWPGCZMMIVPHI-UHFFFAOYSA-N-P44
     RDKit          3D

 20 21  0  0  0  0  0  0  0  0999 V2000
   -9.7518  -14.4505   49.1591 C   0  0  0  0  0  0  0  0  0  0  0  0
   -9.3324  -13.2800   48.3458 C   0  0  0  0  0  0  0  0  0  0  0  0
   -8.2305  -12.6099   48.7157 N   0  0  0  0  0  0  0  0  0  0  0  0
   -8.1454  -11.6061   47.8328 N   0  0  0  0  0  0  0  0  0  0  0  0
   -7.0815  -10.6417   47.9574 C   0  0  0  0  0  0  0  0  0  0  0  0
   -9.1564  -11.5929   46.9265 C   0  0  0  0  0  0  0  0  0  0  0  0
   -9.9678  -12.6777   47.2161 C   0  0  0  0  0  0  0  0  0  0  0  0
  -11.2257  -12.9613   46.5134 C   0  0  0  0  0  0  0  0  0  0  0  0
  -11.8434  -12.0651   46.1025 O   0  0  0  0  0  0  0  0  0  0  0  0
  -11.5416  -14.4632   46.5290 N   0  0  0  0  0  0  0  0  0  0  0  0
  -12.6671  -15.2094   45.9447 C   0  0  2  0  0  0  0  0  0  0  0  0
  -12.5358  -15.2336   44.3964 C   0  0  0  0  0  0  0  0  0  0  0  0
  -13.7641  -15.6933   43.6064 C   0  0  0  0  0  0  0  0  0  0  0  0
  -13.7355  -17.2071   43.7215 C   0  0  0  0  0  0  0  0  0  0  0  0
  -12.2558  -17.5650   43.6852 C   0  0  0  0  0  0  0  0  0  0  0  0
  -11.4901  -16.2679   43.9527 C   0  0  0  0  0  0  0  0  0  0  0  0
  -14.0314  -14.6738   46.4431 C   0  0  0  0  0  0  0  0  0  0  0  0
  -14.0133  -14.4708   47.7830 F   0  0  0  0  0  0  0  0  0  0  0  0
  -15.0161  -15.5757   46.2093 F   0  0  0  0  0  0  0  0  0  0  0  0
  -14.3888  -13.5177   45.8499 F   0  0  0  0  0  0  0  0  0  0  0  0
  1  2  1  0
  2  3  2  0
  3  4  1  0
  4  5  1  0
  4  6  1  0
  6  7  2  0
  7  8  1  0
  8  9  2  0
  8 10  1  0
 11 10  1  1
 11 12  1  0
 12 13  1  0
 13 14  1  0
 14 15  1  0
 15 16  1  0
 11 17  1  0
 17 18  1  0
 17 19  1  0
 17 20  1  0
  7  2  1  0
 16 12  1  0
M  END
>  <inchikey>  (1065) 
VFWPGCZMMIVPHI-UHFFFAOYSA-N

>  <tags>  (1065) 
fragmenstein_placed,CpKRS_FrAncestor_bulkdock_iter2

>  <ref_pdb>  (1065) 
x0502c

>  <energy_score>  (1065) 
-19.901083

>  <distance_score>  (1065) 
0.289618

>  <HIPPO Pose ID>  (1065) 
57991

>  <ref_mols>  (1065) 
x0502b

>  <smiles>  (1065) 
Cc1nn(C)cc1C(=O)NC(C1CCCC1)C(F)(F)F

>  <HIPPO Compound ID>  (1065) 
37558

>  <alias>  (1065) 
VFWPGCZMMIVPHI-UHFFFAOYSA-N-P44

>  <subsites>  (1065) 


>  <placement_batch>  (1065) 
CpKRS_FrAncestor_bulkdock_iter2

>  <name>  (1065) 
VFWPGCZMMIVPHI-UHFFFAOYSA-N-P44

$$$$
OHWVJVMBHFYNTO-UHFFFAOYSA-N-P46
     RDKit          3D

 17 18  0  0  0  0  0  0  0  0999 V2000
    4.3079  -15.6971   27.0819 C   0  0  0  0  0  0  0  0  0  0  0  0
    3.3138  -14.6755   26.6758 C   0  0  0  0  0  0  0  0  0  0  0  0
    2.0986  -14.6551   27.2531 N   0  0  0  0  0  0  0  0  0  0  0  0
    1.4845  -13.6331   26.6521 N   0  0  0  0  0  0  0  0  0  0  0  0
    0.1261  -13.3055   26.9722 C   0  0  0  0  0  0  0  0  0  0  0  0
    2.2368  -12.9957   25.7269 C   0  0  0  0  0  0  0  0  0  0  0  0
    3.4528  -13.6551   25.6896 C   0  0  0  0  0  0  0  0  0  0  0  0
    4.6135  -13.2887   24.8724 C   0  0  0  0  0  0  0  0  0  0  0  0
    5.6956  -13.5346   25.2261 O   0  0  0  0  0  0  0  0  0  0  0  0
    4.1198  -12.5000   23.6462 N   0  0  0  0  0  0  0  0  0  0  0  0
    4.8481  -11.7726   22.6561 C   0  0  0  0  0  0  0  0  0  0  0  0
    4.4035  -10.3182   22.6369 C   0  0  2  0  0  0  0  0  0  0  0  0
    5.1412   -9.5307   21.5551 C   0  0  0  0  0  0  0  0  0  0  0  0
    5.2067   -8.1305   22.1171 C   0  0  0  0  0  0  0  0  0  0  0  0
    5.5671   -8.3831   23.5694 C   0  0  0  0  0  0  0  0  0  0  0  0
    4.6770   -9.5629   23.9615 C   0  0  1  0  0  0  0  0  0  0  0  0
    3.3747   -9.0731   24.5965 C   0  0  0  0  0  0  0  0  0  0  0  0
  1  2  1  0
  2  3  2  0
  3  4  1  0
  4  5  1  0
  4  6  1  0
  6  7  2  0
  7  8  1  0
  8  9  2  0
  8 10  1  0
 10 11  1  0
 12 11  1  1
 12 13  1  0
 13 14  1  0
 14 15  1  0
 15 16  1  0
 16 17  1  6
  7  2  1  0
 16 12  1  0
M  END
>  <inchikey>  (1066) 
OHWVJVMBHFYNTO-UHFFFAOYSA-N

>  <tags>  (1066) 
fragmenstein_placed,CpKRS_FrAncestor_bulkdock_iter2

>  <ref_pdb>  (1066) 
x0502c

>  <energy_score>  (1066) 
-27.578469

>  <distance_score>  (1066) 
0.550353

>  <HIPPO Pose ID>  (1066) 
57995

>  <ref_mols>  (1066) 
x0502c

>  <smiles>  (1066) 
Cc1nn(C)cc1C(=O)NCC1CCCC1C

>  <HIPPO Compound ID>  (1066) 
37559

>  <alias>  (1066) 
OHWVJVMBHFYNTO-UHFFFAOYSA-N-P46

>  <subsites>  (1066) 


>  <placement_batch>  (1066) 
CpKRS_FrAncestor_bulkdock_iter2

>  <name>  (1066) 
OHWVJVMBHFYNTO-UHFFFAOYSA-N-P46

$$$$
ABGCICADAGEKCQ-UHFFFAOYSA-N-P46
     RDKit          3D

 16 17  0  0  0  0  0  0  0  0999 V2000
    4.3479  -15.6587   27.0357 C   0  0  0  0  0  0  0  0  0  0  0  0
    3.3451  -14.6410   26.6404 C   0  0  0  0  0  0  0  0  0  0  0  0
    2.1347  -14.6287   27.2290 N   0  0  0  0  0  0  0  0  0  0  0  0
    1.5104  -13.6061   26.6378 N   0  0  0  0  0  0  0  0  0  0  0  0
    0.1493  -13.2958   26.9643 C   0  0  0  0  0  0  0  0  0  0  0  0
    2.2525  -12.9595   25.7098 C   0  0  0  0  0  0  0  0  0  0  0  0
    3.4663  -13.6219   25.6509 C   0  0  0  0  0  0  0  0  0  0  0  0
    4.6069  -13.2573   24.8057 C   0  0  0  0  0  0  0  0  0  0  0  0
    5.6998  -13.4554   25.1545 O   0  0  0  0  0  0  0  0  0  0  0  0
    4.0746  -12.5368   23.5547 N   0  0  0  0  0  0  0  0  0  0  0  0
    4.7689  -11.8300   22.5239 C   0  0  0  0  0  0  0  0  0  0  0  0
    4.5717  -10.3403   22.7158 C   0  0  0  0  0  0  0  0  0  0  0  0
    5.1647   -9.7864   24.0121 C   0  0  0  0  0  0  0  0  0  0  0  0
    5.5372   -8.3388   23.7037 C   0  0  0  0  0  0  0  0  0  0  0  0
    5.1604   -8.1201   22.2429 C   0  0  0  0  0  0  0  0  0  0  0  0
    5.2269   -9.5016   21.6322 C   0  0  0  0  0  0  0  0  0  0  0  0
  1  2  1  0
  2  3  2  0
  3  4  1  0
  4  5  1  0
  4  6  1  0
  6  7  2  0
  7  8  1  0
  8  9  2  0
  8 10  1  0
 10 11  1  0
 11 12  1  0
 12 13  1  0
 13 14  1  0
 14 15  1  0
 15 16  1  0
  7  2  1  0
 16 12  1  0
M  END
>  <inchikey>  (1067) 
ABGCICADAGEKCQ-UHFFFAOYSA-N

>  <tags>  (1067) 
fragmenstein_placed,CpKRS_FrAncestor_bulkdock_iter2

>  <ref_pdb>  (1067) 
x0502c

>  <energy_score>  (1067) 
-24.209253

>  <distance_score>  (1067) 
0.566036

>  <HIPPO Pose ID>  (1067) 
57998

>  <ref_mols>  (1067) 
x0502c

>  <smiles>  (1067) 
Cc1nn(C)cc1C(=O)NCC1CCCC1

>  <HIPPO Compound ID>  (1067) 
37560

>  <alias>  (1067) 
ABGCICADAGEKCQ-UHFFFAOYSA-N-P46

>  <subsites>  (1067) 


>  <placement_batch>  (1067) 
CpKRS_FrAncestor_bulkdock_iter2

>  <name>  (1067) 
ABGCICADAGEKCQ-UHFFFAOYSA-N-P46

$$$$
NDQHUYSPORDQQI-UHFFFAOYSA-N-P44
     RDKit          3D

 17 18  0  0  0  0  0  0  0  0999 V2000
   -9.8163  -14.4374   49.0983 C   0  0  0  0  0  0  0  0  0  0  0  0
   -9.3647  -13.2534   48.3235 C   0  0  0  0  0  0  0  0  0  0  0  0
   -8.2712  -12.5997   48.7394 N   0  0  0  0  0  0  0  0  0  0  0  0
   -8.1379  -11.5920   47.8683 N   0  0  0  0  0  0  0  0  0  0  0  0
   -7.0465  -10.6639   48.0259 C   0  0  0  0  0  0  0  0  0  0  0  0
   -9.1281  -11.5437   46.9392 C   0  0  0  0  0  0  0  0  0  0  0  0
   -9.9592  -12.6234   47.1878 C   0  0  0  0  0  0  0  0  0  0  0  0
  -11.1965  -12.8948   46.4483 C   0  0  0  0  0  0  0  0  0  0  0  0
  -11.8316  -11.9950   46.0701 O   0  0  0  0  0  0  0  0  0  0  0  0
  -11.4689  -14.4053   46.3780 N   0  0  0  0  0  0  0  0  0  0  0  0
  -12.5367  -15.1357   45.7425 C   0  0  0  0  0  0  0  0  0  0  0  0
  -12.3389  -15.2596   44.2252 C   0  0  1  0  0  0  0  0  0  0  0  0
  -11.4294  -16.4383   43.8644 C   0  0  0  0  0  0  0  0  0  0  0  0
  -12.3439  -17.6276   43.5609 C   0  0  0  0  0  0  0  0  0  0  0  0
  -13.7771  -17.1121   43.6869 C   0  0  2  0  0  0  0  0  0  0  0  0
  -14.7330  -17.7545   42.6953 C   0  0  0  0  0  0  0  0  0  0  0  0
  -13.6421  -15.6042   43.4989 C   0  0  0  0  0  0  0  0  0  0  0  0
  1  2  1  0
  2  3  2  0
  3  4  1  0
  4  5  1  0
  4  6  1  0
  6  7  2  0
  7  8  1  0
  8  9  2  0
  8 10  1  0
 10 11  1  0
 12 11  1  1
 12 13  1  0
 13 14  1  0
 14 15  1  0
 15 16  1  6
 15 17  1  0
  7  2  1  0
 17 12  1  0
M  END
>  <inchikey>  (1068) 
NDQHUYSPORDQQI-UHFFFAOYSA-N

>  <tags>  (1068) 
fragmenstein_placed,CpKRS_FrAncestor_bulkdock_iter2

>  <ref_pdb>  (1068) 
x0502c

>  <energy_score>  (1068) 
-17.04576

>  <distance_score>  (1068) 
0.296214

>  <HIPPO Pose ID>  (1068) 
58000

>  <ref_mols>  (1068) 
x0502b

>  <smiles>  (1068) 
Cc1nn(C)cc1C(=O)NCC1CCC(C)C1

>  <HIPPO Compound ID>  (1068) 
37561

>  <alias>  (1068) 
NDQHUYSPORDQQI-UHFFFAOYSA-N-P44

>  <subsites>  (1068) 


>  <placement_batch>  (1068) 
CpKRS_FrAncestor_bulkdock_iter2

>  <name>  (1068) 
NDQHUYSPORDQQI-UHFFFAOYSA-N-P44

$$$$
ZIDYYOSJTNNXOG-NSHDSACASA-N-P12
     RDKit          3D

 17 18  0  0  0  0  0  0  0  0999 V2000
    4.3563  -15.6832   26.8619 C   0  0  0  0  0  0  0  0  0  0  0  0
    3.2674  -14.7528   26.4720 C   0  0  0  0  0  0  0  0  0  0  0  0
    2.0477  -14.8861   27.0141 N   0  0  0  0  0  0  0  0  0  0  0  0
    1.3362  -13.8953   26.4600 N   0  0  0  0  0  0  0  0  0  0  0  0
   -0.0427  -13.7071   26.8371 C   0  0  0  0  0  0  0  0  0  0  0  0
    2.0382  -13.1655   25.5504 C   0  0  0  0  0  0  0  0  0  0  0  0
    3.3306  -13.6611   25.5580 C   0  0  0  0  0  0  0  0  0  0  0  0
    4.4906  -13.1913   24.7920 C   0  0  0  0  0  0  0  0  0  0  0  0
    5.3800  -13.9121   24.5775 O   0  0  0  0  0  0  0  0  0  0  0  0
    4.2871  -11.7147   24.4050 N   0  0  0  0  0  0  0  0  0  0  0  0
    5.0909  -10.8432   23.5928 C   0  0  1  0  0  0  0  0  0  0  0  0
    4.7225  -11.0039   22.1119 C   0  0  0  0  0  0  0  0  0  0  0  0
    4.7303   -9.6032   21.5172 C   0  0  0  0  0  0  0  0  0  0  0  0
    5.4340   -8.7322   22.5322 C   0  0  0  0  0  0  0  0  0  0  0  0
    5.0135   -9.3258   23.8857 C   0  0  0  0  0  0  0  0  0  0  0  0
    5.9956   -8.8247   24.9449 C   0  0  0  0  0  0  0  0  0  0  0  0
    3.6070   -8.8840   24.2930 C   0  0  0  0  0  0  0  0  0  0  0  0
  1  2  1  0
  2  3  2  0
  3  4  1  0
  4  5  1  0
  4  6  1  0
  6  7  2  0
  7  8  1  0
  8  9  2  0
  8 10  1  0
 11 10  1  1
 11 12  1  0
 12 13  1  0
 13 14  1  0
 14 15  1  0
 15 16  1  0
 15 17  1  0
  7  2  1  0
 15 11  1  0
M  END
>  <inchikey>  (1069) 
ZIDYYOSJTNNXOG-UHFFFAOYSA-N

>  <tags>  (1069) 
fragmenstein_placed,CpKRS_FrAncestor_bulkdock_iter2

>  <ref_pdb>  (1069) 
x0502c

>  <energy_score>  (1069) 
-24.959265

>  <distance_score>  (1069) 
0.32027

>  <HIPPO Pose ID>  (1069) 
58007

>  <ref_mols>  (1069) 
x0421b

>  <smiles>  (1069) 
Cc1nn(C)cc1C(=O)N[C@H]1CCCC1(C)C

>  <HIPPO Compound ID>  (1069) 
37546

>  <alias>  (1069) 
ZIDYYOSJTNNXOG-NSHDSACASA-N-P12

>  <subsites>  (1069) 


>  <placement_batch>  (1069) 
CpKRS_FrAncestor_bulkdock_iter2

>  <name>  (1069) 
ZIDYYOSJTNNXOG-NSHDSACASA-N-P12

$$$$
QQTCVZXNHPDKOC-KCJUWKMLSA-N-P13
     RDKit          3D

 16 17  0  0  0  0  0  0  0  0999 V2000
    4.4274  -15.6984   26.8069 C   0  0  0  0  0  0  0  0  0  0  0  0
    3.3231  -14.8319   26.3223 C   0  0  0  0  0  0  0  0  0  0  0  0
    2.0742  -15.0223   26.7768 N   0  0  0  0  0  0  0  0  0  0  0  0
    1.3561  -14.0962   26.1357 N   0  0  0  0  0  0  0  0  0  0  0  0
   -0.0492  -13.9713   26.4125 C   0  0  0  0  0  0  0  0  0  0  0  0
    2.0803  -13.3263   25.2843 C   0  0  0  0  0  0  0  0  0  0  0  0
    3.3951  -13.7445   25.4013 C   0  0  0  0  0  0  0  0  0  0  0  0
    4.5903  -13.1978   24.7465 C   0  0  0  0  0  0  0  0  0  0  0  0
    5.5611  -13.8357   24.6701 O   0  0  0  0  0  0  0  0  0  0  0  0
    4.3009  -11.7627   24.2754 N   0  0  0  0  0  0  0  0  0  0  0  0
    5.1670  -10.7818   23.6993 C   0  0  1  0  0  0  0  0  0  0  0  0
    4.9864  -10.6602   22.1930 C   0  0  0  0  0  0  0  0  0  0  0  0
    5.4347   -9.2430   21.8486 C   0  0  0  0  0  0  0  0  0  0  0  0
    5.6565   -8.5154   23.1733 C   0  0  0  0  0  0  0  0  0  0  0  0
    4.9548   -9.3617   24.2344 C   0  0  1  0  0  0  0  0  0  0  0  0
    3.4915   -8.9607   24.4014 C   0  0  0  0  0  0  0  0  0  0  0  0
  1  2  1  0
  2  3  2  0
  3  4  1  0
  4  5  1  0
  4  6  1  0
  6  7  2  0
  7  8  1  0
  8  9  2  0
  8 10  1  0
 11 10  1  1
 11 12  1  0
 12 13  1  0
 13 14  1  0
 14 15  1  0
 15 16  1  6
  7  2  1  0
 15 11  1  0
M  END
>  <inchikey>  (1070) 
QQTCVZXNHPDKOC-UHFFFAOYSA-N

>  <tags>  (1070) 
fragmenstein_placed,CpKRS_FrAncestor_bulkdock_iter2

>  <ref_pdb>  (1070) 
x0502c

>  <energy_score>  (1070) 
-7.44363

>  <distance_score>  (1070) 
0.252932

>  <HIPPO Pose ID>  (1070) 
58016

>  <ref_mols>  (1070) 
x0421c

>  <smiles>  (1070) 
Cc1nn(C)cc1C(=O)N[C@H]1CCC[C@H]1C

>  <HIPPO Compound ID>  (1070) 
37547

>  <alias>  (1070) 
QQTCVZXNHPDKOC-KCJUWKMLSA-N-P13

>  <subsites>  (1070) 


>  <placement_batch>  (1070) 
CpKRS_FrAncestor_bulkdock_iter2

>  <name>  (1070) 
QQTCVZXNHPDKOC-KCJUWKMLSA-N-P13

$$$$
GJDFYBGYFFGEMW-WCBMZHEXSA-N-P12
     RDKit          3D

 16 17  0  0  0  0  0  0  0  0999 V2000
    4.1442  -15.7706   26.8637 C   0  0  0  0  0  0  0  0  0  0  0  0
    3.0547  -14.8513   26.4458 C   0  0  0  0  0  0  0  0  0  0  0  0
    1.8237  -14.9828   26.9603 N   0  0  0  0  0  0  0  0  0  0  0  0
    1.1358  -13.9674   26.4205 N   0  0  0  0  0  0  0  0  0  0  0  0
   -0.2237  -13.7232   26.8313 C   0  0  0  0  0  0  0  0  0  0  0  0
    1.8514  -13.2449   25.5164 C   0  0  0  0  0  0  0  0  0  0  0  0
    3.1374  -13.7521   25.5449 C   0  0  0  0  0  0  0  0  0  0  0  0
    4.3297  -13.2611   24.8560 C   0  0  0  0  0  0  0  0  0  0  0  0
    5.2148  -13.9822   24.6282 O   0  0  0  0  0  0  0  0  0  0  0  0
    4.1981  -11.7447   24.6375 N   0  0  0  0  0  0  0  0  0  0  0  0
    5.0813  -10.8211   24.0130 C   0  0  2  0  0  0  0  0  0  0  0  0
    4.8514   -9.3698   24.4088 C   0  0  0  0  0  0  0  0  0  0  0  0
    5.7436   -8.6394   23.4256 C   0  0  0  0  0  0  0  0  0  0  0  0
    5.6245   -9.4581   22.1351 C   0  0  2  0  0  0  0  0  0  0  0  0
    4.7891   -8.7201   21.1314 C   0  0  0  0  0  0  0  0  0  0  0  0
    4.9804  -10.7979   22.5031 C   0  0  0  0  0  0  0  0  0  0  0  0
  1  2  1  0
  2  3  2  0
  3  4  1  0
  4  5  1  0
  4  6  1  0
  6  7  2  0
  7  8  1  0
  8  9  2  0
  8 10  1  0
 11 10  1  1
 11 12  1  0
 12 13  1  0
 13 14  1  0
 14 15  1  6
 14 16  1  0
  7  2  1  0
 16 11  1  0
M  END
>  <inchikey>  (1071) 
GJDFYBGYFFGEMW-UHFFFAOYSA-N

>  <tags>  (1071) 
fragmenstein_placed,CpKRS_FrAncestor_bulkdock_iter2

>  <ref_pdb>  (1071) 
x0502c

>  <energy_score>  (1071) 
-13.208536

>  <distance_score>  (1071) 
0.441139

>  <HIPPO Pose ID>  (1071) 
58019

>  <ref_mols>  (1071) 
x0421b

>  <smiles>  (1071) 
Cc1nn(C)cc1C(=O)N[C@@H]1CC[C@H](C)C1

>  <HIPPO Compound ID>  (1071) 
37550

>  <alias>  (1071) 
GJDFYBGYFFGEMW-WCBMZHEXSA-N-P12

>  <subsites>  (1071) 


>  <placement_batch>  (1071) 
CpKRS_FrAncestor_bulkdock_iter2

>  <name>  (1071) 
GJDFYBGYFFGEMW-WCBMZHEXSA-N-P12

$$$$
XSGVLFPBJXOMII-IUCAKERBSA-N-P13
     RDKit          3D

 16 17  0  0  0  0  0  0  0  0999 V2000
    4.4275  -15.6766   26.8174 C   0  0  0  0  0  0  0  0  0  0  0  0
    3.2878  -14.8573   26.3320 C   0  0  0  0  0  0  0  0  0  0  0  0
    2.0539  -15.0643   26.8198 N   0  0  0  0  0  0  0  0  0  0  0  0
    1.3008  -14.1692   26.1735 N   0  0  0  0  0  0  0  0  0  0  0  0
   -0.0911  -14.0380   26.5040 C   0  0  0  0  0  0  0  0  0  0  0  0
    1.9825  -13.4168   25.2755 C   0  0  0  0  0  0  0  0  0  0  0  0
    3.3091  -13.7943   25.3834 C   0  0  0  0  0  0  0  0  0  0  0  0
    4.4665  -13.2195   24.6965 C   0  0  0  0  0  0  0  0  0  0  0  0
    5.4361  -13.8440   24.5421 O   0  0  0  0  0  0  0  0  0  0  0  0
    4.1479  -11.7641   24.3177 N   0  0  0  0  0  0  0  0  0  0  0  0
    4.9783  -10.7499   23.7596 C   0  0  1  0  0  0  0  0  0  0  0  0
    5.2471  -10.9223   22.2741 C   0  0  0  0  0  0  0  0  0  0  0  0
    5.6428   -9.5215   21.8035 C   0  0  0  0  0  0  0  0  0  0  0  0
    5.1859   -8.5532   22.8990 C   0  0  2  0  0  0  0  0  0  0  0  0
    6.5357   -7.8929   23.8481 Cl  0  0  0  0  0  0  0  0  0  0  0  0
    4.3122   -9.3827   23.8202 C   0  0  0  0  0  0  0  0  0  0  0  0
  1  2  1  0
  2  3  2  0
  3  4  1  0
  4  5  1  0
  4  6  1  0
  6  7  2  0
  7  8  1  0
  8  9  2  0
  8 10  1  0
 11 10  1  6
 11 12  1  0
 12 13  1  0
 13 14  1  0
 14 15  1  1
 14 16  1  0
  7  2  1  0
 16 11  1  0
M  END
>  <inchikey>  (1072) 
XSGVLFPBJXOMII-UHFFFAOYSA-N

>  <tags>  (1072) 
fragmenstein_placed,CpKRS_FrAncestor_bulkdock_iter2

>  <ref_pdb>  (1072) 
x0502c

>  <energy_score>  (1072) 
-15.480149

>  <distance_score>  (1072) 
0.307336

>  <HIPPO Pose ID>  (1072) 
58024

>  <ref_mols>  (1072) 
x0421c

>  <smiles>  (1072) 
Cc1nn(C)cc1C(=O)N[C@H]1CC[C@H](Cl)C1

>  <HIPPO Compound ID>  (1072) 
37563

>  <alias>  (1072) 
XSGVLFPBJXOMII-IUCAKERBSA-N-P13

>  <subsites>  (1072) 


>  <placement_batch>  (1072) 
CpKRS_FrAncestor_bulkdock_iter2

>  <name>  (1072) 
XSGVLFPBJXOMII-IUCAKERBSA-N-P13

$$$$
OOPGEMKHLMTZDC-UHFFFAOYSA-N-P44
     RDKit          3D

 17 18  0  0  0  0  0  0  0  0999 V2000
   -9.7013  -14.4325   49.2066 C   0  0  0  0  0  0  0  0  0  0  0  0
   -9.3143  -13.2643   48.3749 C   0  0  0  0  0  0  0  0  0  0  0  0
   -8.2339  -12.5555   48.7299 N   0  0  0  0  0  0  0  0  0  0  0  0
   -8.1694  -11.5755   47.8195 N   0  0  0  0  0  0  0  0  0  0  0  0
   -7.1152  -10.5969   47.9101 C   0  0  0  0  0  0  0  0  0  0  0  0
   -9.1904  -11.5988   46.9228 C   0  0  0  0  0  0  0  0  0  0  0  0
   -9.9679  -12.7001   47.2380 C   0  0  0  0  0  0  0  0  0  0  0  0
  -11.2220  -13.0470   46.5642 C   0  0  0  0  0  0  0  0  0  0  0  0
  -11.9450  -12.1887   46.2526 O   0  0  0  0  0  0  0  0  0  0  0  0
  -11.3919  -14.5725   46.4806 N   0  0  0  0  0  0  0  0  0  0  0  0
  -12.4567  -15.3722   45.9042 C   0  0  2  0  0  0  0  0  0  0  0  0
  -12.5149  -16.7267   46.6018 C   0  0  0  0  0  0  0  0  0  0  0  0
  -12.3558  -15.3800   44.3589 C   0  0  0  0  0  0  0  0  0  0  0  0
  -11.4542  -16.4559   43.7553 C   0  0  0  0  0  0  0  0  0  0  0  0
  -12.3509  -17.6490   43.4434 C   0  0  0  0  0  0  0  0  0  0  0  0
  -13.7839  -17.1357   43.4450 C   0  0  0  0  0  0  0  0  0  0  0  0
  -13.6931  -15.6327   43.6549 C   0  0  0  0  0  0  0  0  0  0  0  0
  1  2  1  0
  2  3  2  0
  3  4  1  0
  4  5  1  0
  4  6  1  0
  6  7  2  0
  7  8  1  0
  8  9  2  0
  8 10  1  0
 10 11  1  0
 11 12  1  1
 11 13  1  0
 13 14  1  0
 14 15  1  0
 15 16  1  0
 16 17  1  0
  7  2  1  0
 17 13  1  0
M  END
>  <inchikey>  (1073) 
OOPGEMKHLMTZDC-UHFFFAOYSA-N

>  <tags>  (1073) 
fragmenstein_placed,CpKRS_FrAncestor_bulkdock_iter2

>  <ref_pdb>  (1073) 
x0502c

>  <energy_score>  (1073) 
-15.178758

>  <distance_score>  (1073) 
0.292858

>  <HIPPO Pose ID>  (1073) 
58027

>  <ref_mols>  (1073) 
x0502b

>  <smiles>  (1073) 
Cc1nn(C)cc1C(=O)NC(C)C1CCCC1

>  <HIPPO Compound ID>  (1073) 
37565

>  <alias>  (1073) 
OOPGEMKHLMTZDC-UHFFFAOYSA-N-P44

>  <subsites>  (1073) 


>  <placement_batch>  (1073) 
CpKRS_FrAncestor_bulkdock_iter2

>  <name>  (1073) 
OOPGEMKHLMTZDC-UHFFFAOYSA-N-P44

$$$$
AKXMRSUKGYSHHR-UHFFFAOYSA-N-P44
     RDKit          3D

 18 19  0  0  0  0  0  0  0  0999 V2000
   -9.7077  -14.4204   49.1911 C   0  0  0  0  0  0  0  0  0  0  0  0
   -9.2789  -13.2710   48.3525 C   0  0  0  0  0  0  0  0  0  0  0  0
   -8.2194  -12.5524   48.7557 N   0  0  0  0  0  0  0  0  0  0  0  0
   -8.1096  -11.5868   47.8337 N   0  0  0  0  0  0  0  0  0  0  0  0
   -7.0699  -10.5973   47.9663 C   0  0  0  0  0  0  0  0  0  0  0  0
   -9.0699  -11.6382   46.8760 C   0  0  0  0  0  0  0  0  0  0  0  0
   -9.8636  -12.7374   47.1617 C   0  0  0  0  0  0  0  0  0  0  0  0
  -11.0642  -13.0914   46.3910 C   0  0  0  0  0  0  0  0  0  0  0  0
  -11.6494  -12.2380   45.8544 O   0  0  0  0  0  0  0  0  0  0  0  0
  -11.3711  -14.5961   46.4997 N   0  0  0  0  0  0  0  0  0  0  0  0
  -12.5347  -15.3686   46.0429 C   0  0  0  0  0  0  0  0  0  0  0  0
  -13.7904  -14.6809   46.6185 C   0  0  0  0  0  0  0  0  0  0  0  0
  -12.4473  -16.7693   46.6711 C   0  0  0  0  0  0  0  0  0  0  0  0
  -12.5623  -15.3549   44.4757 C   0  0  0  0  0  0  0  0  0  0  0  0
  -11.5365  -16.2793   43.8085 C   0  0  0  0  0  0  0  0  0  0  0  0
  -12.2679  -17.5769   43.4767 C   0  0  0  0  0  0  0  0  0  0  0  0
  -13.7568  -17.2773   43.5624 C   0  0  0  0  0  0  0  0  0  0  0  0
  -13.8633  -15.7784   43.7815 C   0  0  0  0  0  0  0  0  0  0  0  0
  1  2  1  0
  2  3  2  0
  3  4  1  0
  4  5  1  0
  4  6  1  0
  6  7  2  0
  7  8  1  0
  8  9  2  0
  8 10  1  0
 10 11  1  0
 11 12  1  0
 11 13  1  0
 11 14  1  0
 14 15  1  0
 15 16  1  0
 16 17  1  0
 17 18  1  0
  7  2  1  0
 18 14  1  0
M  END
>  <inchikey>  (1074) 
AKXMRSUKGYSHHR-UHFFFAOYSA-N

>  <tags>  (1074) 
fragmenstein_placed,CpKRS_FrAncestor_bulkdock_iter2

>  <ref_pdb>  (1074) 
x0502c

>  <energy_score>  (1074) 
-15.751527

>  <distance_score>  (1074) 
0.293716

>  <HIPPO Pose ID>  (1074) 
58036

>  <ref_mols>  (1074) 
x0502b

>  <smiles>  (1074) 
Cc1nn(C)cc1C(=O)NC(C)(C)C1CCCC1

>  <HIPPO Compound ID>  (1074) 
37568

>  <alias>  (1074) 
AKXMRSUKGYSHHR-UHFFFAOYSA-N-P44

>  <subsites>  (1074) 


>  <placement_batch>  (1074) 
CpKRS_FrAncestor_bulkdock_iter2

>  <name>  (1074) 
AKXMRSUKGYSHHR-UHFFFAOYSA-N-P44

$$$$
YEVHHQJQDMLSCT-UHFFFAOYSA-N-P49
     RDKit          3D

 17 17  0  0  0  0  0  0  0  0999 V2000
    4.6271  -15.6372   26.3081 C   0  0  0  0  0  0  0  0  0  0  0  0
    3.4581  -14.7261   26.3492 C   0  0  0  0  0  0  0  0  0  0  0  0
    2.4186  -15.0193   27.1379 N   0  0  0  0  0  0  0  0  0  0  0  0
    1.5796  -14.0036   26.9389 N   0  0  0  0  0  0  0  0  0  0  0  0
    0.3161  -14.0147   27.6053 C   0  0  0  0  0  0  0  0  0  0  0  0
    1.9991  -13.0886   26.0301 C   0  0  0  0  0  0  0  0  0  0  0  0
    3.2501  -13.5112   25.6265 C   0  0  0  0  0  0  0  0  0  0  0  0
    4.1424  -12.9133   24.6404 C   0  0  0  0  0  0  0  0  0  0  0  0
    4.9171  -13.6070   24.1116 O   0  0  0  0  0  0  0  0  0  0  0  0
    3.8120  -11.4187   24.4083 N   0  0  0  0  0  0  0  0  0  0  0  0
    4.3062  -10.4833   23.4003 C   0  0  0  0  0  0  0  0  0  0  0  0
    3.4537  -10.7095   22.1751 C   0  0  0  0  0  0  0  0  0  0  0  0
    5.7111  -10.8848   23.0123 C   0  0  0  0  0  0  0  0  0  0  0  0
    4.2862   -8.9672   23.7961 C   0  0  0  0  0  0  0  0  0  0  0  0
    5.2271   -8.0949   22.9508 C   0  0  0  0  0  0  0  0  0  0  0  0
    4.6071   -8.7183   25.2606 C   0  0  0  0  0  0  0  0  0  0  0  0
    3.0170   -8.4704   23.5832 F   0  0  0  0  0  0  0  0  0  0  0  0
  1  2  1  0
  2  3  2  0
  3  4  1  0
  4  5  1  0
  4  6  1  0
  6  7  2  0
  7  8  1  0
  8  9  2  0
  8 10  1  0
 10 11  1  0
 11 12  1  0
 11 13  1  0
 11 14  1  0
 14 15  1  0
 14 16  1  0
 14 17  1  0
  7  2  1  0
M  END
>  <inchikey>  (1075) 
YEVHHQJQDMLSCT-UHFFFAOYSA-N

>  <tags>  (1075) 
fragmenstein_placed,CpKRS_FrAncestor_bulkdock_iter2

>  <ref_pdb>  (1075) 
x0502c

>  <energy_score>  (1075) 
-12.035255

>  <distance_score>  (1075) 
0.752542

>  <HIPPO Pose ID>  (1075) 
58039

>  <ref_mols>  (1075) 
x0504b

>  <smiles>  (1075) 
Cc1nn(C)cc1C(=O)NC(C)(C)C(C)(C)F

>  <HIPPO Compound ID>  (1075) 
37569

>  <alias>  (1075) 
YEVHHQJQDMLSCT-UHFFFAOYSA-N-P49

>  <subsites>  (1075) 


>  <placement_batch>  (1075) 
CpKRS_FrAncestor_bulkdock_iter2

>  <name>  (1075) 
YEVHHQJQDMLSCT-UHFFFAOYSA-N-P49

$$$$
KDZDJHXLVRMUQL-UHFFFAOYSA-N-P49
     RDKit          3D

 17 17  0  0  0  0  0  0  0  0999 V2000
    5.0481  -15.8630   26.1073 C   0  0  0  0  0  0  0  0  0  0  0  0
    3.8218  -15.0924   26.4044 C   0  0  0  0  0  0  0  0  0  0  0  0
    3.0026  -15.5402   27.3585 N   0  0  0  0  0  0  0  0  0  0  0  0
    2.0572  -14.6078   27.4314 N   0  0  0  0  0  0  0  0  0  0  0  0
    1.0988  -14.7113   28.4960 C   0  0  0  0  0  0  0  0  0  0  0  0
    2.1706  -13.6266   26.4900 C   0  0  0  0  0  0  0  0  0  0  0  0
    3.3682  -13.8649   25.8291 C   0  0  0  0  0  0  0  0  0  0  0  0
    4.0620  -13.0804   24.7899 C   0  0  0  0  0  0  0  0  0  0  0  0
    5.0170  -13.5299   24.2995 O   0  0  0  0  0  0  0  0  0  0  0  0
    3.3086  -11.7734   24.4900 N   0  0  0  0  0  0  0  0  0  0  0  0
    3.6317  -10.6752   23.5689 C   0  0  0  0  0  0  0  0  0  0  0  0
    2.3361   -9.8865   23.3284 C   0  0  0  0  0  0  0  0  0  0  0  0
    4.1102  -11.2952   22.2464 C   0  0  0  0  0  0  0  0  0  0  0  0
    4.7278   -9.7257   24.1381 C   0  0  0  0  0  0  0  0  0  0  0  0
    5.3183   -8.7167   23.1671 C   0  0  0  0  0  0  0  0  0  0  0  0
    4.2161   -9.0403   25.2002 F   0  0  0  0  0  0  0  0  0  0  0  0
    5.7599  -10.4483   24.6345 F   0  0  0  0  0  0  0  0  0  0  0  0
  1  2  1  0
  2  3  2  0
  3  4  1  0
  4  5  1  0
  4  6  1  0
  6  7  2  0
  7  8  1  0
  8  9  2  0
  8 10  1  0
 10 11  1  0
 11 12  1  0
 11 13  1  0
 11 14  1  0
 14 15  1  0
 14 16  1  0
 14 17  1  0
  7  2  1  0
M  END
>  <inchikey>  (1076) 
KDZDJHXLVRMUQL-UHFFFAOYSA-N

>  <tags>  (1076) 
fragmenstein_placed,CpKRS_FrAncestor_bulkdock_iter2

>  <ref_pdb>  (1076) 
x0502c

>  <energy_score>  (1076) 
-27.285937

>  <distance_score>  (1076) 
0.705125

>  <HIPPO Pose ID>  (1076) 
58045

>  <ref_mols>  (1076) 
x0504b

>  <smiles>  (1076) 
Cc1nn(C)cc1C(=O)NC(C)(C)C(C)(F)F

>  <HIPPO Compound ID>  (1076) 
37571

>  <alias>  (1076) 
KDZDJHXLVRMUQL-UHFFFAOYSA-N-P49

>  <subsites>  (1076) 


>  <placement_batch>  (1076) 
CpKRS_FrAncestor_bulkdock_iter2

>  <name>  (1076) 
KDZDJHXLVRMUQL-UHFFFAOYSA-N-P49

$$$$
RPPKAXSIGJZHDI-UHFFFAOYSA-N-P48
     RDKit          3D

 17 17  0  0  0  0  0  0  0  0999 V2000
    4.3275  -15.8716   26.6972 C   0  0  0  0  0  0  0  0  0  0  0  0
    3.2034  -14.9101   26.5903 C   0  0  0  0  0  0  0  0  0  0  0  0
    2.0730  -15.1426   27.2678 N   0  0  0  0  0  0  0  0  0  0  0  0
    1.3047  -14.0880   26.9813 N   0  0  0  0  0  0  0  0  0  0  0  0
    0.0051  -13.9788   27.5890 C   0  0  0  0  0  0  0  0  0  0  0  0
    1.8773  -13.2094   26.1111 C   0  0  0  0  0  0  0  0  0  0  0  0
    3.1408  -13.7004   25.8302 C   0  0  0  0  0  0  0  0  0  0  0  0
    4.2069  -13.1437   24.9839 C   0  0  0  0  0  0  0  0  0  0  0  0
    5.2117  -13.7260   24.8958 O   0  0  0  0  0  0  0  0  0  0  0  0
    3.7429  -11.8445   24.2985 N   0  0  0  0  0  0  0  0  0  0  0  0
    4.4656  -10.9221   23.4184 C   0  0  0  0  0  0  0  0  0  0  0  0
    5.6865  -10.3753   24.1520 C   0  0  0  0  0  0  0  0  0  0  0  0
    4.8705  -11.6995   22.1586 C   0  0  0  0  0  0  0  0  0  0  0  0
    3.6695   -9.6885   22.9981 C   0  0  0  0  0  0  0  0  0  0  0  0
    4.2889   -9.0016   22.0095 F   0  0  0  0  0  0  0  0  0  0  0  0
    3.5087   -8.8190   24.0253 F   0  0  0  0  0  0  0  0  0  0  0  0
    2.4215   -9.9777   22.5741 F   0  0  0  0  0  0  0  0  0  0  0  0
  1  2  1  0
  2  3  2  0
  3  4  1  0
  4  5  1  0
  4  6  1  0
  6  7  2  0
  7  8  1  0
  8  9  2  0
  8 10  1  0
 10 11  1  0
 11 12  1  0
 11 13  1  0
 11 14  1  0
 14 15  1  0
 14 16  1  0
 14 17  1  0
  7  2  1  0
M  END
>  <inchikey>  (1077) 
RPPKAXSIGJZHDI-UHFFFAOYSA-N

>  <tags>  (1077) 
fragmenstein_placed,CpKRS_FrAncestor_bulkdock_iter2

>  <ref_pdb>  (1077) 
x0502c

>  <energy_score>  (1077) 
-6.874544

>  <distance_score>  (1077) 
0.709858

>  <HIPPO Pose ID>  (1077) 
58050

>  <ref_mols>  (1077) 
x0504a

>  <smiles>  (1077) 
Cc1nn(C)cc1C(=O)NC(C)(C)C(F)(F)F

>  <HIPPO Compound ID>  (1077) 
37573

>  <alias>  (1077) 
RPPKAXSIGJZHDI-UHFFFAOYSA-N-P48

>  <subsites>  (1077) 


>  <placement_batch>  (1077) 
CpKRS_FrAncestor_bulkdock_iter2

>  <name>  (1077) 
RPPKAXSIGJZHDI-UHFFFAOYSA-N-P48

$$$$
HLAOYXDZMKYCPQ-UHFFFAOYSA-N-P48
     RDKit          3D

 16 16  0  0  0  0  0  0  0  0999 V2000
    4.2872  -15.9419   26.9079 C   0  0  0  0  0  0  0  0  0  0  0  0
    3.2088  -14.9477   26.6958 C   0  0  0  0  0  0  0  0  0  0  0  0
    2.0336  -15.1108   27.3146 N   0  0  0  0  0  0  0  0  0  0  0  0
    1.3169  -14.0517   26.9283 N   0  0  0  0  0  0  0  0  0  0  0  0
   -0.0175  -13.8818   27.4417 C   0  0  0  0  0  0  0  0  0  0  0  0
    1.9720  -13.2340   26.0555 C   0  0  0  0  0  0  0  0  0  0  0  0
    3.2346  -13.7766   25.8776 C   0  0  0  0  0  0  0  0  0  0  0  0
    4.3691  -13.3044   25.0662 C   0  0  0  0  0  0  0  0  0  0  0  0
    5.3784  -13.8809   25.1221 O   0  0  0  0  0  0  0  0  0  0  0  0
    3.9688  -12.0760   24.2342 N   0  0  0  0  0  0  0  0  0  0  0  0
    4.7016  -11.3483   23.2161 C   0  0  1  0  0  0  0  0  0  0  0  0
    4.5921  -12.1199   21.9132 C   0  0  0  0  0  0  0  0  0  0  0  0
    4.2980   -9.8822   23.0440 C   0  0  0  0  0  0  0  0  0  0  0  0
    4.6585   -9.0327   24.2428 C   0  0  0  0  0  0  0  0  0  0  0  0
    2.9579   -9.7606   22.8266 F   0  0  0  0  0  0  0  0  0  0  0  0
    4.9047   -9.3522   21.9493 F   0  0  0  0  0  0  0  0  0  0  0  0
  1  2  1  0
  2  3  2  0
  3  4  1  0
  4  5  1  0
  4  6  1  0
  6  7  2  0
  7  8  1  0
  8  9  2  0
  8 10  1  0
 10 11  1  0
 11 12  1  6
 11 13  1  0
 13 14  1  0
 13 15  1  0
 13 16  1  0
  7  2  1  0
M  END
>  <inchikey>  (1078) 
HLAOYXDZMKYCPQ-UHFFFAOYSA-N

>  <tags>  (1078) 
fragmenstein_placed,CpKRS_FrAncestor_bulkdock_iter2

>  <ref_pdb>  (1078) 
x0502c

>  <energy_score>  (1078) 
-25.075322

>  <distance_score>  (1078) 
0.512978

>  <HIPPO Pose ID>  (1078) 
58053

>  <ref_mols>  (1078) 
x0504a

>  <smiles>  (1078) 
Cc1nn(C)cc1C(=O)NC(C)C(C)(F)F

>  <HIPPO Compound ID>  (1078) 
37574

>  <alias>  (1078) 
HLAOYXDZMKYCPQ-UHFFFAOYSA-N-P48

>  <subsites>  (1078) 


>  <placement_batch>  (1078) 
CpKRS_FrAncestor_bulkdock_iter2

>  <name>  (1078) 
HLAOYXDZMKYCPQ-UHFFFAOYSA-N-P48

$$$$
HTYCKVHUEFBYKF-UHFFFAOYSA-N-P49
     RDKit          3D

 16 16  0  0  0  0  0  0  0  0999 V2000
    4.9408  -15.8065   26.2582 C   0  0  0  0  0  0  0  0  0  0  0  0
    3.7237  -14.9705   26.3666 C   0  0  0  0  0  0  0  0  0  0  0  0
    2.7624  -15.3336   27.2241 N   0  0  0  0  0  0  0  0  0  0  0  0
    1.8518  -14.3721   27.1023 N   0  0  0  0  0  0  0  0  0  0  0  0
    0.6606  -14.4312   27.8943 C   0  0  0  0  0  0  0  0  0  0  0  0
    2.1405  -13.4431   26.1540 C   0  0  0  0  0  0  0  0  0  0  0  0
    3.3998  -13.7629   25.6730 C   0  0  0  0  0  0  0  0  0  0  0  0
    4.2238  -13.0521   24.6847 C   0  0  0  0  0  0  0  0  0  0  0  0
    5.2065  -13.5433   24.3039 O   0  0  0  0  0  0  0  0  0  0  0  0
    3.5554  -11.7270   24.2894 N   0  0  0  0  0  0  0  0  0  0  0  0
    4.0093  -10.6659   23.3986 C   0  0  0  0  0  0  0  0  0  0  0  0
    2.8313   -9.7123   23.1642 C   0  0  0  0  0  0  0  0  0  0  0  0
    4.4514  -11.2781   22.0660 C   0  0  0  0  0  0  0  0  0  0  0  0
    5.1871   -9.8759   23.9898 C   0  0  0  0  0  0  0  0  0  0  0  0
    5.5298   -8.8605   23.1516 F   0  0  0  0  0  0  0  0  0  0  0  0
    4.8084   -9.2878   25.1562 F   0  0  0  0  0  0  0  0  0  0  0  0
  1  2  1  0
  2  3  2  0
  3  4  1  0
  4  5  1  0
  4  6  1  0
  6  7  2  0
  7  8  1  0
  8  9  2  0
  8 10  1  0
 10 11  1  0
 11 12  1  0
 11 13  1  0
 11 14  1  0
 14 15  1  0
 14 16  1  0
  7  2  1  0
M  END
>  <inchikey>  (1079) 
HTYCKVHUEFBYKF-UHFFFAOYSA-N

>  <tags>  (1079) 
fragmenstein_placed,CpKRS_FrAncestor_bulkdock_iter2

>  <ref_pdb>  (1079) 
x0502c

>  <energy_score>  (1079) 
-24.167561

>  <distance_score>  (1079) 
0.493112

>  <HIPPO Pose ID>  (1079) 
58057

>  <ref_mols>  (1079) 
x0504b

>  <smiles>  (1079) 
Cc1nn(C)cc1C(=O)NC(C)(C)C(F)F

>  <HIPPO Compound ID>  (1079) 
37575

>  <alias>  (1079) 
HTYCKVHUEFBYKF-UHFFFAOYSA-N-P49

>  <subsites>  (1079) 


>  <placement_batch>  (1079) 
CpKRS_FrAncestor_bulkdock_iter2

>  <name>  (1079) 
HTYCKVHUEFBYKF-UHFFFAOYSA-N-P49

$$$$
QDZZSKCZZRSFLU-UHFFFAOYSA-N-P49
     RDKit          3D

 15 15  0  0  0  0  0  0  0  0999 V2000
    4.7534  -15.8329   26.2099 C   0  0  0  0  0  0  0  0  0  0  0  0
    3.5750  -14.9378   26.2768 C   0  0  0  0  0  0  0  0  0  0  0  0
    2.5344  -15.2792   27.0456 N   0  0  0  0  0  0  0  0  0  0  0  0
    1.7167  -14.2331   26.9484 N   0  0  0  0  0  0  0  0  0  0  0  0
    0.5027  -14.2266   27.7056 C   0  0  0  0  0  0  0  0  0  0  0  0
    2.1263  -13.2785   26.0744 C   0  0  0  0  0  0  0  0  0  0  0  0
    3.3678  -13.6865   25.6180 C   0  0  0  0  0  0  0  0  0  0  0  0
    4.3018  -12.9831   24.7317 C   0  0  0  0  0  0  0  0  0  0  0  0
    5.3971  -13.3660   24.6468 O   0  0  0  0  0  0  0  0  0  0  0  0
    3.6015  -11.8051   24.0352 N   0  0  0  0  0  0  0  0  0  0  0  0
    4.1294  -10.7853   23.1533 C   0  0  2  0  0  0  0  0  0  0  0  0
    4.7416  -11.4430   21.9274 C   0  0  0  0  0  0  0  0  0  0  0  0
    5.1216   -9.8715   23.8853 C   0  0  1  0  0  0  0  0  0  0  0  0
    5.6449   -8.7381   23.0211 C   0  0  0  0  0  0  0  0  0  0  0  0
    4.4725   -9.2988   24.9444 F   0  0  0  0  0  0  0  0  0  0  0  0
  1  2  1  0
  2  3  2  0
  3  4  1  0
  4  5  1  0
  4  6  1  0
  6  7  2  0
  7  8  1  0
  8  9  2  0
  8 10  1  0
 10 11  1  0
 11 12  1  6
 11 13  1  0
 13 14  1  6
 13 15  1  0
  7  2  1  0
M  END
>  <inchikey>  (1080) 
QDZZSKCZZRSFLU-UHFFFAOYSA-N

>  <tags>  (1080) 
fragmenstein_placed,CpKRS_FrAncestor_bulkdock_iter2

>  <ref_pdb>  (1080) 
x0502c

>  <energy_score>  (1080) 
-17.255488

>  <distance_score>  (1080) 
0.639233

>  <HIPPO Pose ID>  (1080) 
58060

>  <ref_mols>  (1080) 
x0504b

>  <smiles>  (1080) 
Cc1nn(C)cc1C(=O)NC(C)C(C)F

>  <HIPPO Compound ID>  (1080) 
37576

>  <alias>  (1080) 
QDZZSKCZZRSFLU-UHFFFAOYSA-N-P49

>  <subsites>  (1080) 


>  <placement_batch>  (1080) 
CpKRS_FrAncestor_bulkdock_iter2

>  <name>  (1080) 
QDZZSKCZZRSFLU-UHFFFAOYSA-N-P49

$$$$
PATDGEJMBXFUEW-UHFFFAOYSA-N-P48
     RDKit          3D

 15 15  0  0  0  0  0  0  0  0999 V2000
    4.6614  -15.8679   26.4166 C   0  0  0  0  0  0  0  0  0  0  0  0
    3.4814  -14.9907   26.5934 C   0  0  0  0  0  0  0  0  0  0  0  0
    2.5694  -15.2959   27.5239 N   0  0  0  0  0  0  0  0  0  0  0  0
    1.6792  -14.3026   27.4426 N   0  0  0  0  0  0  0  0  0  0  0  0
    0.6137  -14.2311   28.4083 C   0  0  0  0  0  0  0  0  0  0  0  0
    1.9471  -13.4069   26.4482 C   0  0  0  0  0  0  0  0  0  0  0  0
    3.1475  -13.8034   25.8796 C   0  0  0  0  0  0  0  0  0  0  0  0
    3.9360  -13.1530   24.8254 C   0  0  0  0  0  0  0  0  0  0  0  0
    5.0819  -13.3415   24.7604 O   0  0  0  0  0  0  0  0  0  0  0  0
    3.0105  -12.3266   23.9208 N   0  0  0  0  0  0  0  0  0  0  0  0
    3.3146  -11.4762   22.7939 C   0  0  0  0  0  0  0  0  0  0  0  0
    4.5567  -10.5814   22.8660 C   0  0  0  0  0  0  0  0  0  0  0  0
    4.6385   -9.7169   24.1024 C   0  0  0  0  0  0  0  0  0  0  0  0
    5.6797  -11.3183   22.7392 F   0  0  0  0  0  0  0  0  0  0  0  0
    4.5411   -9.7404   21.7896 F   0  0  0  0  0  0  0  0  0  0  0  0
  1  2  1  0
  2  3  2  0
  3  4  1  0
  4  5  1  0
  4  6  1  0
  6  7  2  0
  7  8  1  0
  8  9  2  0
  8 10  1  0
 10 11  1  0
 11 12  1  0
 12 13  1  0
 12 14  1  0
 12 15  1  0
  7  2  1  0
M  END
>  <inchikey>  (1081) 
PATDGEJMBXFUEW-UHFFFAOYSA-N

>  <tags>  (1081) 
fragmenstein_placed,CpKRS_FrAncestor_bulkdock_iter2

>  <ref_pdb>  (1081) 
x0502c

>  <energy_score>  (1081) 
-3.35952

>  <distance_score>  (1081) 
0.608521

>  <HIPPO Pose ID>  (1081) 
58068

>  <ref_mols>  (1081) 
x0504a

>  <smiles>  (1081) 
Cc1nn(C)cc1C(=O)NCC(C)(F)F

>  <HIPPO Compound ID>  (1081) 
37579

>  <alias>  (1081) 
PATDGEJMBXFUEW-UHFFFAOYSA-N-P48

>  <subsites>  (1081) 


>  <placement_batch>  (1081) 
CpKRS_FrAncestor_bulkdock_iter2

>  <name>  (1081) 
PATDGEJMBXFUEW-UHFFFAOYSA-N-P48

$$$$
YNUBQNJKWRAHLA-UHFFFAOYSA-N-P49
     RDKit          3D

 14 14  0  0  0  0  0  0  0  0999 V2000
    4.1971  -15.8983   26.5183 C   0  0  0  0  0  0  0  0  0  0  0  0
    3.1537  -14.8648   26.3028 C   0  0  0  0  0  0  0  0  0  0  0  0
    1.9627  -14.9718   26.9140 N   0  0  0  0  0  0  0  0  0  0  0  0
    1.3189  -13.8618   26.5445 N   0  0  0  0  0  0  0  0  0  0  0  0
   -0.0090  -13.6088   27.0256 C   0  0  0  0  0  0  0  0  0  0  0  0
    2.0181  -13.0678   25.6973 C   0  0  0  0  0  0  0  0  0  0  0  0
    3.2340  -13.6945   25.4883 C   0  0  0  0  0  0  0  0  0  0  0  0
    4.3722  -13.2138   24.6955 C   0  0  0  0  0  0  0  0  0  0  0  0
    5.4352  -13.6512   24.8823 O   0  0  0  0  0  0  0  0  0  0  0  0
    3.9082  -12.0876   23.7548 N   0  0  0  0  0  0  0  0  0  0  0  0
    4.6666  -11.1989   22.9161 C   0  0  0  0  0  0  0  0  0  0  0  0
    4.5984   -9.7661   23.4463 C   0  0  2  0  0  0  0  0  0  0  0  0
    5.3855   -8.8026   22.5834 C   0  0  0  0  0  0  0  0  0  0  0  0
    5.1029   -9.7154   24.7106 F   0  0  0  0  0  0  0  0  0  0  0  0
  1  2  1  0
  2  3  2  0
  3  4  1  0
  4  5  1  0
  4  6  1  0
  6  7  2  0
  7  8  1  0
  8  9  2  0
  8 10  1  0
 10 11  1  0
 11 12  1  0
 12 13  1  6
 12 14  1  0
  7  2  1  0
M  END
>  <inchikey>  (1082) 
YNUBQNJKWRAHLA-UHFFFAOYSA-N

>  <tags>  (1082) 
fragmenstein_placed,CpKRS_FrAncestor_bulkdock_iter2

>  <ref_pdb>  (1082) 
x0502c

>  <energy_score>  (1082) 
-2.16204

>  <distance_score>  (1082) 
0.584586

>  <HIPPO Pose ID>  (1082) 
58072

>  <ref_mols>  (1082) 
x0504b

>  <smiles>  (1082) 
Cc1nn(C)cc1C(=O)NCC(C)F

>  <HIPPO Compound ID>  (1082) 
37580

>  <alias>  (1082) 
YNUBQNJKWRAHLA-UHFFFAOYSA-N-P49

>  <subsites>  (1082) 


>  <placement_batch>  (1082) 
CpKRS_FrAncestor_bulkdock_iter2

>  <name>  (1082) 
YNUBQNJKWRAHLA-UHFFFAOYSA-N-P49

$$$$
BDUNAHAALOASMS-UHFFFAOYSA-N-P48
     RDKit          3D

 18 18  0  0  0  0  0  0  0  0999 V2000
    4.4693  -15.8206   26.6071 C   0  0  0  0  0  0  0  0  0  0  0  0
    3.3150  -14.8913   26.6294 C   0  0  0  0  0  0  0  0  0  0  0  0
    2.2383  -15.1885   27.3678 N   0  0  0  0  0  0  0  0  0  0  0  0
    1.4183  -14.1509   27.1707 N   0  0  0  0  0  0  0  0  0  0  0  0
    0.1493  -14.1143   27.8453 C   0  0  0  0  0  0  0  0  0  0  0  0
    1.9052  -13.2225   26.3035 C   0  0  0  0  0  0  0  0  0  0  0  0
    3.1601  -13.6629   25.9215 C   0  0  0  0  0  0  0  0  0  0  0  0
    4.1246  -13.0400   25.0082 C   0  0  0  0  0  0  0  0  0  0  0  0
    5.2292  -13.4057   25.0021 O   0  0  0  0  0  0  0  0  0  0  0  0
    3.4092  -12.0192   24.1113 N   0  0  0  0  0  0  0  0  0  0  0  0
    3.8774  -11.3000   22.9532 C   0  0  2  0  0  0  0  0  0  0  0  0
    4.4141  -12.2848   21.9330 C   0  0  0  0  0  0  0  0  0  0  0  0
    4.8903  -10.1842   23.1960 C   0  0  0  0  0  0  0  0  0  0  0  0
    5.7772   -9.8993   22.4005 O   0  0  0  0  0  0  0  0  0  0  0  0
    4.6280   -9.4934   24.3414 O   0  0  0  0  0  0  0  0  0  0  0  0
    5.5636   -8.4517   24.6936 C   0  0  0  0  0  0  0  0  0  0  0  0
    5.7088   -7.3856   23.6161 C   0  0  0  0  0  0  0  0  0  0  0  0
    5.0482   -7.7907   25.9678 C   0  0  0  0  0  0  0  0  0  0  0  0
  1  2  1  0
  2  3  2  0
  3  4  1  0
  4  5  1  0
  4  6  1  0
  6  7  2  0
  7  8  1  0
  8  9  2  0
  8 10  1  0
 10 11  1  0
 11 12  1  6
 11 13  1  0
 13 14  2  0
 13 15  1  0
 15 16  1  0
 16 17  1  0
 16 18  1  0
  7  2  1  0
M  END
>  <inchikey>  (1083) 
BDUNAHAALOASMS-UHFFFAOYSA-N

>  <tags>  (1083) 
fragmenstein_placed,CpKRS_FrAncestor_bulkdock_iter2

>  <ref_pdb>  (1083) 
x0502c

>  <energy_score>  (1083) 
-20.877723

>  <distance_score>  (1083) 
0.467474

>  <HIPPO Pose ID>  (1083) 
58077

>  <ref_mols>  (1083) 
x0504a

>  <smiles>  (1083) 
Cc1nn(C)cc1C(=O)NC(C)C(=O)OC(C)C

>  <HIPPO Compound ID>  (1083) 
37582

>  <alias>  (1083) 
BDUNAHAALOASMS-UHFFFAOYSA-N-P48

>  <subsites>  (1083) 


>  <placement_batch>  (1083) 
CpKRS_FrAncestor_bulkdock_iter2

>  <name>  (1083) 
BDUNAHAALOASMS-UHFFFAOYSA-N-P48

$$$$
SHPPIFKLOYJNID-UHFFFAOYSA-N-P49
     RDKit          3D

 14 14  0  0  0  0  0  0  0  0999 V2000
    4.2766  -15.8222   26.4628 C   0  0  0  0  0  0  0  0  0  0  0  0
    3.2087  -14.8117   26.2565 C   0  0  0  0  0  0  0  0  0  0  0  0
    2.0258  -14.9482   26.8764 N   0  0  0  0  0  0  0  0  0  0  0  0
    1.3525  -13.8527   26.5163 N   0  0  0  0  0  0  0  0  0  0  0  0
    0.0274  -13.6302   27.0206 C   0  0  0  0  0  0  0  0  0  0  0  0
    2.0233  -13.0436   25.6585 C   0  0  0  0  0  0  0  0  0  0  0  0
    3.2535  -13.6393   25.4408 C   0  0  0  0  0  0  0  0  0  0  0  0
    4.3762  -13.1334   24.6408 C   0  0  0  0  0  0  0  0  0  0  0  0
    5.4562  -13.4980   24.8735 O   0  0  0  0  0  0  0  0  0  0  0  0
    3.8750  -12.0753   23.6449 N   0  0  0  0  0  0  0  0  0  0  0  0
    4.6058  -11.1727   22.7904 C   0  0  0  0  0  0  0  0  0  0  0  0
    5.2540  -10.0097   23.5473 C   0  0  1  0  0  0  0  0  0  0  0  0
    5.7319   -9.1097   22.6469 F   0  0  0  0  0  0  0  0  0  0  0  0
    4.0908   -9.1562   24.5915 Cl  0  0  0  0  0  0  0  0  0  0  0  0
  1  2  1  0
  2  3  2  0
  3  4  1  0
  4  5  1  0
  4  6  1  0
  6  7  2  0
  7  8  1  0
  8  9  2  0
  8 10  1  0
 10 11  1  0
 11 12  1  0
 12 13  1  6
 12 14  1  0
  7  2  1  0
M  END
>  <inchikey>  (1084) 
SHPPIFKLOYJNID-UHFFFAOYSA-N

>  <tags>  (1084) 
fragmenstein_placed,CpKRS_FrAncestor_bulkdock_iter2

>  <ref_pdb>  (1084) 
x0502c

>  <energy_score>  (1084) 
-5.500865

>  <distance_score>  (1084) 
0.640353

>  <HIPPO Pose ID>  (1084) 
58081

>  <ref_mols>  (1084) 
x0504b

>  <smiles>  (1084) 
Cc1nn(C)cc1C(=O)NCC(F)Cl

>  <HIPPO Compound ID>  (1084) 
37583

>  <alias>  (1084) 
SHPPIFKLOYJNID-UHFFFAOYSA-N-P49

>  <subsites>  (1084) 


>  <placement_batch>  (1084) 
CpKRS_FrAncestor_bulkdock_iter2

>  <name>  (1084) 
SHPPIFKLOYJNID-UHFFFAOYSA-N-P49

$$$$
DHRQNYAROJDTEK-UHFFFAOYSA-N-P48
     RDKit          3D

 15 15  0  0  0  0  0  0  0  0999 V2000
    4.3991  -15.9567   26.6668 C   0  0  0  0  0  0  0  0  0  0  0  0
    3.2832  -14.9895   26.5614 C   0  0  0  0  0  0  0  0  0  0  0  0
    2.1559  -15.1967   27.2530 N   0  0  0  0  0  0  0  0  0  0  0  0
    1.4015  -14.1301   26.9683 N   0  0  0  0  0  0  0  0  0  0  0  0
    0.1140  -13.9896   27.5971 C   0  0  0  0  0  0  0  0  0  0  0  0
    1.9737  -13.2801   26.0698 C   0  0  0  0  0  0  0  0  0  0  0  0
    3.2199  -13.8075   25.7713 C   0  0  0  0  0  0  0  0  0  0  0  0
    4.2675  -13.2670   24.8983 C   0  0  0  0  0  0  0  0  0  0  0  0
    5.3837  -13.5193   25.1054 O   0  0  0  0  0  0  0  0  0  0  0  0
    3.6326  -12.3741   23.8247 N   0  0  0  0  0  0  0  0  0  0  0  0
    4.2319  -11.6722   22.7124 C   0  0  0  0  0  0  0  0  0  0  0  0
    4.4376  -10.1736   22.9343 C   0  0  0  0  0  0  0  0  0  0  0  0
    4.9577   -9.6095   21.8140 F   0  0  0  0  0  0  0  0  0  0  0  0
    5.3069   -9.9239   23.9391 F   0  0  0  0  0  0  0  0  0  0  0  0
    2.7430   -9.2764   23.3515 Br  0  0  0  0  0  0  0  0  0  0  0  0
  1  2  1  0
  2  3  2  0
  3  4  1  0
  4  5  1  0
  4  6  1  0
  6  7  2  0
  7  8  1  0
  8  9  2  0
  8 10  1  0
 10 11  1  0
 11 12  1  0
 12 13  1  0
 12 14  1  0
 12 15  1  0
  7  2  1  0
M  END
>  <inchikey>  (1085) 
DHRQNYAROJDTEK-UHFFFAOYSA-N

>  <tags>  (1085) 
fragmenstein_placed,CpKRS_FrAncestor_bulkdock_iter2

>  <ref_pdb>  (1085) 
x0502c

>  <energy_score>  (1085) 
-19.395529

>  <distance_score>  (1085) 
0.403379

>  <HIPPO Pose ID>  (1085) 
58083

>  <ref_mols>  (1085) 
x0504a

>  <smiles>  (1085) 
Cc1nn(C)cc1C(=O)NCC(F)(F)Br

>  <HIPPO Compound ID>  (1085) 
37584

>  <alias>  (1085) 
DHRQNYAROJDTEK-UHFFFAOYSA-N-P48

>  <subsites>  (1085) 


>  <placement_batch>  (1085) 
CpKRS_FrAncestor_bulkdock_iter2

>  <name>  (1085) 
DHRQNYAROJDTEK-UHFFFAOYSA-N-P48

$$$$
QJHDTJZFNYVSLM-UHFFFAOYSA-N-P48
     RDKit          3D

 15 15  0  0  0  0  0  0  0  0999 V2000
    4.4334  -15.8487   26.7411 C   0  0  0  0  0  0  0  0  0  0  0  0
    3.2961  -14.9127   26.5789 C   0  0  0  0  0  0  0  0  0  0  0  0
    2.1633  -15.1164   27.2636 N   0  0  0  0  0  0  0  0  0  0  0  0
    1.3901  -14.0796   26.9225 N   0  0  0  0  0  0  0  0  0  0  0  0
    0.0905  -13.9425   27.5274 C   0  0  0  0  0  0  0  0  0  0  0  0
    1.9557  -13.2561   25.9945 C   0  0  0  0  0  0  0  0  0  0  0  0
    3.2159  -13.7686   25.7327 C   0  0  0  0  0  0  0  0  0  0  0  0
    4.2630  -13.2519   24.8431 C   0  0  0  0  0  0  0  0  0  0  0  0
    5.3772  -13.5054   25.0577 O   0  0  0  0  0  0  0  0  0  0  0  0
    3.6297  -12.4346   23.7095 N   0  0  0  0  0  0  0  0  0  0  0  0
    4.2434  -11.6715   22.6449 C   0  0  0  0  0  0  0  0  0  0  0  0
    4.4075  -10.1709   22.9104 C   0  0  0  0  0  0  0  0  0  0  0  0
    4.9827   -9.5811   21.8293 F   0  0  0  0  0  0  0  0  0  0  0  0
    5.2242   -9.9330   23.9625 F   0  0  0  0  0  0  0  0  0  0  0  0
    2.8457   -9.3530   23.2242 Cl  0  0  0  0  0  0  0  0  0  0  0  0
  1  2  1  0
  2  3  2  0
  3  4  1  0
  4  5  1  0
  4  6  1  0
  6  7  2  0
  7  8  1  0
  8  9  2  0
  8 10  1  0
 10 11  1  0
 11 12  1  0
 12 13  1  0
 12 14  1  0
 12 15  1  0
  7  2  1  0
M  END
>  <inchikey>  (1086) 
QJHDTJZFNYVSLM-UHFFFAOYSA-N

>  <tags>  (1086) 
fragmenstein_placed,CpKRS_FrAncestor_bulkdock_iter2

>  <ref_pdb>  (1086) 
x0502c

>  <energy_score>  (1086) 
-16.786106

>  <distance_score>  (1086) 
0.40934

>  <HIPPO Pose ID>  (1086) 
58086

>  <ref_mols>  (1086) 
x0504a

>  <smiles>  (1086) 
Cc1nn(C)cc1C(=O)NCC(F)(F)Cl

>  <HIPPO Compound ID>  (1086) 
37585

>  <alias>  (1086) 
QJHDTJZFNYVSLM-UHFFFAOYSA-N-P48

>  <subsites>  (1086) 


>  <placement_batch>  (1086) 
CpKRS_FrAncestor_bulkdock_iter2

>  <name>  (1086) 
QJHDTJZFNYVSLM-UHFFFAOYSA-N-P48

$$$$
SIFLVTXRQKOAMC-UHFFFAOYSA-N-P48
     RDKit          3D

 15 15  0  0  0  0  0  0  0  0999 V2000
    4.4087  -15.8653   26.7076 C   0  0  0  0  0  0  0  0  0  0  0  0
    3.2810  -14.9169   26.5519 C   0  0  0  0  0  0  0  0  0  0  0  0
    2.1455  -15.1184   27.2317 N   0  0  0  0  0  0  0  0  0  0  0  0
    1.3797  -14.0741   26.8984 N   0  0  0  0  0  0  0  0  0  0  0  0
    0.0791  -13.9353   27.5012 C   0  0  0  0  0  0  0  0  0  0  0  0
    1.9551  -13.2440   25.9822 C   0  0  0  0  0  0  0  0  0  0  0  0
    3.2137  -13.7607   25.7206 C   0  0  0  0  0  0  0  0  0  0  0  0
    4.2722  -13.2378   24.8473 C   0  0  0  0  0  0  0  0  0  0  0  0
    5.3825  -13.5009   25.0727 O   0  0  0  0  0  0  0  0  0  0  0  0
    3.6613  -12.3636   23.7432 N   0  0  0  0  0  0  0  0  0  0  0  0
    4.2835  -11.6992   22.6171 C   0  0  0  0  0  0  0  0  0  0  0  0
    4.3697  -10.1802   22.7375 C   0  0  0  0  0  0  0  0  0  0  0  0
    4.9885   -9.7752   23.8662 F   0  0  0  0  0  0  0  0  0  0  0  0
    5.0389   -9.6470   21.6903 F   0  0  0  0  0  0  0  0  0  0  0  0
    3.1327   -9.6119   22.7407 F   0  0  0  0  0  0  0  0  0  0  0  0
  1  2  1  0
  2  3  2  0
  3  4  1  0
  4  5  1  0
  4  6  1  0
  6  7  2  0
  7  8  1  0
  8  9  2  0
  8 10  1  0
 10 11  1  0
 11 12  1  0
 12 13  1  0
 12 14  1  0
 12 15  1  0
  7  2  1  0
M  END
>  <inchikey>  (1087) 
SIFLVTXRQKOAMC-UHFFFAOYSA-N

>  <tags>  (1087) 
fragmenstein_placed,CpKRS_FrAncestor_bulkdock_iter2

>  <ref_pdb>  (1087) 
x0502c

>  <energy_score>  (1087) 
-8.028764

>  <distance_score>  (1087) 
0.375035

>  <HIPPO Pose ID>  (1087) 
58089

>  <ref_mols>  (1087) 
x0504a

>  <smiles>  (1087) 
Cc1nn(C)cc1C(=O)NCC(F)(F)F

>  <HIPPO Compound ID>  (1087) 
37586

>  <alias>  (1087) 
SIFLVTXRQKOAMC-UHFFFAOYSA-N-P48

>  <subsites>  (1087) 


>  <placement_batch>  (1087) 
CpKRS_FrAncestor_bulkdock_iter2

>  <name>  (1087) 
SIFLVTXRQKOAMC-UHFFFAOYSA-N-P48

$$$$
GJSCSWRLUMAKGF-UHFFFAOYSA-N-P47
     RDKit          3D

 13 13  0  0  0  0  0  0  0  0999 V2000
    4.4419    2.3991   43.9347 C   0  0  0  0  0  0  0  0  0  0  0  0
    3.6291    3.3562   44.7317 C   0  0  0  0  0  0  0  0  0  0  0  0
    3.3653    3.1031   46.0219 N   0  0  0  0  0  0  0  0  0  0  0  0
    2.5618    4.1120   46.3835 N   0  0  0  0  0  0  0  0  0  0  0  0
    1.9093    4.0924   47.6625 C   0  0  0  0  0  0  0  0  0  0  0  0
    2.3498    5.0301   45.4041 C   0  0  0  0  0  0  0  0  0  0  0  0
    3.0246    4.5748   44.2870 C   0  0  0  0  0  0  0  0  0  0  0  0
    3.1170    5.1695   42.9471 C   0  0  0  0  0  0  0  0  0  0  0  0
    3.7104    4.6034   42.1228 O   0  0  0  0  0  0  0  0  0  0  0  0
    2.4143    6.5323   42.9076 N   0  0  0  0  0  0  0  0  0  0  0  0
    2.3720    7.5319   41.8752 C   0  0  0  0  0  0  0  0  0  0  0  0
    3.7754    7.8819   41.4144 C   0  0  0  0  0  0  0  0  0  0  0  0
    4.5416    8.1593   42.5076 F   0  0  0  0  0  0  0  0  0  0  0  0
  1  2  1  0
  2  3  2  0
  3  4  1  0
  4  5  1  0
  4  6  1  0
  6  7  2  0
  7  8  1  0
  8  9  2  0
  8 10  1  0
 10 11  1  0
 11 12  1  0
 12 13  1  0
  7  2  1  0
M  END
>  <inchikey>  (1088) 
GJSCSWRLUMAKGF-UHFFFAOYSA-N

>  <tags>  (1088) 
fragmenstein_placed,CpKRS_FrAncestor_bulkdock_iter2

>  <ref_pdb>  (1088) 
x0502c

>  <energy_score>  (1088) 
-4.795599

>  <distance_score>  (1088) 
0.57017

>  <HIPPO Pose ID>  (1088) 
58097

>  <ref_mols>  (1088) 
x0504c

>  <smiles>  (1088) 
Cc1nn(C)cc1C(=O)NCCF

>  <HIPPO Compound ID>  (1088) 
37588

>  <alias>  (1088) 
GJSCSWRLUMAKGF-UHFFFAOYSA-N-P47

>  <subsites>  (1088) 


>  <placement_batch>  (1088) 
CpKRS_FrAncestor_bulkdock_iter2

>  <name>  (1088) 
GJSCSWRLUMAKGF-UHFFFAOYSA-N-P47

$$$$
GPIUKHHCZWEING-VIFPVBQESA-N-P47
     RDKit          3D

 18 18  0  0  0  0  0  0  0  0999 V2000
    4.4508    2.3964   43.9295 C   0  0  0  0  0  0  0  0  0  0  0  0
    3.6193    3.3870   44.6648 C   0  0  0  0  0  0  0  0  0  0  0  0
    3.2679    3.1520   45.9352 N   0  0  0  0  0  0  0  0  0  0  0  0
    2.5031    4.2041   46.2536 N   0  0  0  0  0  0  0  0  0  0  0  0
    1.8405    4.2255   47.5293 C   0  0  0  0  0  0  0  0  0  0  0  0
    2.3777    5.1228   45.2532 C   0  0  0  0  0  0  0  0  0  0  0  0
    3.0884    4.6258   44.1758 C   0  0  0  0  0  0  0  0  0  0  0  0
    3.3377    5.2066   42.8476 C   0  0  0  0  0  0  0  0  0  0  0  0
    4.1628    4.7141   42.1939 O   0  0  0  0  0  0  0  0  0  0  0  0
    2.4662    6.4420   42.5847 N   0  0  0  0  0  0  0  0  0  0  0  0
    2.4914    7.4049   41.4855 C   0  0  1  0  0  0  0  0  0  0  0  0
    1.0947    7.9198   41.0751 C   0  0  0  0  0  0  0  0  0  0  0  0
    0.5402    9.0183   41.9856 C   0  0  0  0  0  0  0  0  0  0  0  0
    1.0766    8.4138   39.6239 C   0  0  0  0  0  0  0  0  0  0  0  0
    3.5567    8.4883   41.7023 C   0  0  0  0  0  0  0  0  0  0  0  0
    3.1488    9.4533   42.5509 F   0  0  0  0  0  0  0  0  0  0  0  0
    4.6860    7.9604   42.2266 F   0  0  0  0  0  0  0  0  0  0  0  0
    3.8815    9.0836   40.5356 F   0  0  0  0  0  0  0  0  0  0  0  0
  1  2  1  0
  2  3  2  0
  3  4  1  0
  4  5  1  0
  4  6  1  0
  6  7  2  0
  7  8  1  0
  8  9  2  0
  8 10  1  0
 11 10  1  1
 11 12  1  0
 12 13  1  0
 12 14  1  0
 11 15  1  0
 15 16  1  0
 15 17  1  0
 15 18  1  0
  7  2  1  0
M  END
>  <inchikey>  (1089) 
GPIUKHHCZWEING-UHFFFAOYSA-N

>  <tags>  (1089) 
fragmenstein_placed,CpKRS_FrAncestor_bulkdock_iter2

>  <ref_pdb>  (1089) 
x0502c

>  <energy_score>  (1089) 
-6.610548

>  <distance_score>  (1089) 
0.763722

>  <HIPPO Pose ID>  (1089) 
58103

>  <ref_mols>  (1089) 
x0504c

>  <smiles>  (1089) 
Cc1nn(C)cc1C(=O)N[C@@H](C(C)C)C(F)(F)F

>  <HIPPO Compound ID>  (1089) 
37570

>  <alias>  (1089) 
GPIUKHHCZWEING-VIFPVBQESA-N-P47

>  <subsites>  (1089) 


>  <placement_batch>  (1089) 
CpKRS_FrAncestor_bulkdock_iter2

>  <name>  (1089) 
GPIUKHHCZWEING-VIFPVBQESA-N-P47

$$$$
SDOOJLRMVDCCID-QMMMGPOBSA-N-P48
     RDKit          3D

 16 16  0  0  0  0  0  0  0  0999 V2000
    4.2433  -15.9267   26.8975 C   0  0  0  0  0  0  0  0  0  0  0  0
    3.1746  -14.9224   26.6766 C   0  0  0  0  0  0  0  0  0  0  0  0
    1.9861  -15.0866   27.2687 N   0  0  0  0  0  0  0  0  0  0  0  0
    1.2859  -14.0147   26.8882 N   0  0  0  0  0  0  0  0  0  0  0  0
   -0.0538  -13.8403   27.3858 C   0  0  0  0  0  0  0  0  0  0  0  0
    1.9604  -13.1918   26.0352 C   0  0  0  0  0  0  0  0  0  0  0  0
    3.2212  -13.7415   25.8716 C   0  0  0  0  0  0  0  0  0  0  0  0
    4.3711  -13.2704   25.0825 C   0  0  0  0  0  0  0  0  0  0  0  0
    5.3780  -13.8494   25.1644 O   0  0  0  0  0  0  0  0  0  0  0  0
    3.9872  -12.0548   24.2204 N   0  0  0  0  0  0  0  0  0  0  0  0
    4.7361  -11.3507   23.2024 C   0  0  1  0  0  0  0  0  0  0  0  0
    4.6548  -12.1848   21.9342 C   0  0  0  0  0  0  0  0  0  0  0  0
    4.3456   -9.8705   23.0115 C   0  0  0  0  0  0  0  0  0  0  0  0
    4.5788   -9.0823   24.2971 C   0  0  0  0  0  0  0  0  0  0  0  0
    5.1089   -9.2075   21.8636 C   0  0  0  0  0  0  0  0  0  0  0  0
    3.0097   -9.7699   22.7257 F   0  0  0  0  0  0  0  0  0  0  0  0
  1  2  1  0
  2  3  2  0
  3  4  1  0
  4  5  1  0
  4  6  1  0
  6  7  2  0
  7  8  1  0
  8  9  2  0
  8 10  1  0
 10 11  1  0
 11 12  1  6
 11 13  1  0
 13 14  1  0
 13 15  1  0
 13 16  1  0
  7  2  1  0
M  END
>  <inchikey>  (1090) 
SDOOJLRMVDCCID-UHFFFAOYSA-N

>  <tags>  (1090) 
fragmenstein_placed,CpKRS_FrAncestor_bulkdock_iter2

>  <ref_pdb>  (1090) 
x0502c

>  <energy_score>  (1090) 
-16.446765

>  <distance_score>  (1090) 
0.532499

>  <HIPPO Pose ID>  (1090) 
58110

>  <ref_mols>  (1090) 
x0504a

>  <smiles>  (1090) 
Cc1nn(C)cc1C(=O)N[C@@H](C)C(C)(C)F

>  <HIPPO Compound ID>  (1090) 
37572

>  <alias>  (1090) 
SDOOJLRMVDCCID-QMMMGPOBSA-N-P48

>  <subsites>  (1090) 


>  <placement_batch>  (1090) 
CpKRS_FrAncestor_bulkdock_iter2

>  <name>  (1090) 
SDOOJLRMVDCCID-QMMMGPOBSA-N-P48

$$$$
OOONHRMWVPNZAA-ZCFIWIBFSA-N-P48
     RDKit          3D

 16 16  0  0  0  0  0  0  0  0999 V2000
    4.5307  -15.7819   26.5474 C   0  0  0  0  0  0  0  0  0  0  0  0
    3.3511  -14.8852   26.5741 C   0  0  0  0  0  0  0  0  0  0  0  0
    2.2893  -15.2060   27.3249 N   0  0  0  0  0  0  0  0  0  0  0  0
    1.4439  -14.1862   27.1405 N   0  0  0  0  0  0  0  0  0  0  0  0
    0.1894  -14.1685   27.8435 C   0  0  0  0  0  0  0  0  0  0  0  0
    1.8940  -13.2541   26.2570 C   0  0  0  0  0  0  0  0  0  0  0  0
    3.1540  -13.6681   25.8604 C   0  0  0  0  0  0  0  0  0  0  0  0
    4.0888  -13.0065   24.9463 C   0  0  0  0  0  0  0  0  0  0  0  0
    5.2329  -13.1979   25.0392 O   0  0  0  0  0  0  0  0  0  0  0  0
    3.3006  -12.1506   23.9426 N   0  0  0  0  0  0  0  0  0  0  0  0
    3.7482  -11.4176   22.7720 C   0  0  2  0  0  0  0  0  0  0  0  0
    4.8655  -12.1618   22.0658 C   0  0  0  0  0  0  0  0  0  0  0  0
    4.1623   -9.9631   23.0190 C   0  0  0  0  0  0  0  0  0  0  0  0
    5.0531   -9.8135   24.0164 F   0  0  0  0  0  0  0  0  0  0  0  0
    3.0740   -9.2029   23.3312 F   0  0  0  0  0  0  0  0  0  0  0  0
    4.6957   -9.4083   21.9036 F   0  0  0  0  0  0  0  0  0  0  0  0
  1  2  1  0
  2  3  2  0
  3  4  1  0
  4  5  1  0
  4  6  1  0
  6  7  2  0
  7  8  1  0
  8  9  2  0
  8 10  1  0
 10 11  1  0
 11 12  1  1
 11 13  1  0
 13 14  1  0
 13 15  1  0
 13 16  1  0
  7  2  1  0
M  END
>  <inchikey>  (1091) 
OOONHRMWVPNZAA-UHFFFAOYSA-N

>  <tags>  (1091) 
fragmenstein_placed,CpKRS_FrAncestor_bulkdock_iter2

>  <ref_pdb>  (1091) 
x0502c

>  <energy_score>  (1091) 
-12.231538

>  <distance_score>  (1091) 
0.420499

>  <HIPPO Pose ID>  (1091) 
58113

>  <ref_mols>  (1091) 
x0504a

>  <smiles>  (1091) 
Cc1nn(C)cc1C(=O)N[C@H](C)C(F)(F)F

>  <HIPPO Compound ID>  (1091) 
37577

>  <alias>  (1091) 
OOONHRMWVPNZAA-ZCFIWIBFSA-N-P48

>  <subsites>  (1091) 


>  <placement_batch>  (1091) 
CpKRS_FrAncestor_bulkdock_iter2

>  <name>  (1091) 
OOONHRMWVPNZAA-ZCFIWIBFSA-N-P48

$$$$
ZCHQRAZPMQGWPB-ZCFIWIBFSA-N-P49
     RDKit          3D

 15 15  0  0  0  0  0  0  0  0999 V2000
    4.7880  -15.8141   26.2157 C   0  0  0  0  0  0  0  0  0  0  0  0
    3.5983  -14.9338   26.2837 C   0  0  0  0  0  0  0  0  0  0  0  0
    2.5674  -15.2864   27.0599 N   0  0  0  0  0  0  0  0  0  0  0  0
    1.7306  -14.2571   26.9574 N   0  0  0  0  0  0  0  0  0  0  0  0
    0.5201  -14.2649   27.7207 C   0  0  0  0  0  0  0  0  0  0  0  0
    2.1185  -13.3035   26.0710 C   0  0  0  0  0  0  0  0  0  0  0  0
    3.3694  -13.6883   25.6191 C   0  0  0  0  0  0  0  0  0  0  0  0
    4.2939  -12.9784   24.7262 C   0  0  0  0  0  0  0  0  0  0  0  0
    5.3903  -13.3548   24.6377 O   0  0  0  0  0  0  0  0  0  0  0  0
    3.5914  -11.7925   24.0494 N   0  0  0  0  0  0  0  0  0  0  0  0
    4.1178  -10.7541   23.1867 C   0  0  2  0  0  0  0  0  0  0  0  0
    4.7569  -11.3661   21.9510 C   0  0  0  0  0  0  0  0  0  0  0  0
    5.1120   -9.8359   23.8964 C   0  0  0  0  0  0  0  0  0  0  0  0
    5.4153   -8.7895   23.0819 F   0  0  0  0  0  0  0  0  0  0  0  0
    4.5228   -9.2920   24.9949 F   0  0  0  0  0  0  0  0  0  0  0  0
  1  2  1  0
  2  3  2  0
  3  4  1  0
  4  5  1  0
  4  6  1  0
  6  7  2  0
  7  8  1  0
  8  9  2  0
  8 10  1  0
 10 11  1  0
 11 12  1  6
 11 13  1  0
 13 14  1  0
 13 15  1  0
  7  2  1  0
M  END
>  <inchikey>  (1092) 
ZCHQRAZPMQGWPB-UHFFFAOYSA-N

>  <tags>  (1092) 
fragmenstein_placed,CpKRS_FrAncestor_bulkdock_iter2

>  <ref_pdb>  (1092) 
x0502c

>  <energy_score>  (1092) 
-3.457151

>  <distance_score>  (1092) 
0.449176

>  <HIPPO Pose ID>  (1092) 
58123

>  <ref_mols>  (1092) 
x0504b

>  <smiles>  (1092) 
Cc1nn(C)cc1C(=O)N[C@H](C)C(F)F

>  <HIPPO Compound ID>  (1092) 
37578

>  <alias>  (1092) 
ZCHQRAZPMQGWPB-ZCFIWIBFSA-N-P49

>  <subsites>  (1092) 


>  <placement_batch>  (1092) 
CpKRS_FrAncestor_bulkdock_iter2

>  <name>  (1092) 
ZCHQRAZPMQGWPB-ZCFIWIBFSA-N-P49

$$$$
ZXEIMIHWPUJZDW-ZCFIWIBFSA-N-P49
     RDKit          3D

 14 14  0  0  0  0  0  0  0  0999 V2000
    4.7665  -15.7941   26.2368 C   0  0  0  0  0  0  0  0  0  0  0  0
    3.5858  -14.9014   26.2917 C   0  0  0  0  0  0  0  0  0  0  0  0
    2.5607  -15.2235   27.0884 N   0  0  0  0  0  0  0  0  0  0  0  0
    1.7159  -14.2063   26.9391 N   0  0  0  0  0  0  0  0  0  0  0  0
    0.4922  -14.2038   27.6812 C   0  0  0  0  0  0  0  0  0  0  0  0
    2.1076  -13.2787   26.0271 C   0  0  0  0  0  0  0  0  0  0  0  0
    3.3610  -13.6738   25.5915 C   0  0  0  0  0  0  0  0  0  0  0  0
    4.2851  -13.0029   24.6661 C   0  0  0  0  0  0  0  0  0  0  0  0
    5.3396  -13.4647   24.4942 O   0  0  0  0  0  0  0  0  0  0  0  0
    3.6401  -11.7406   24.0683 N   0  0  0  0  0  0  0  0  0  0  0  0
    4.1932  -10.7233   23.2013 C   0  0  2  0  0  0  0  0  0  0  0  0
    4.7969  -11.3534   21.9579 C   0  0  0  0  0  0  0  0  0  0  0  0
    5.2248   -9.8689   23.9278 C   0  0  0  0  0  0  0  0  0  0  0  0
    4.6124   -9.2093   24.9503 F   0  0  0  0  0  0  0  0  0  0  0  0
  1  2  1  0
  2  3  2  0
  3  4  1  0
  4  5  1  0
  4  6  1  0
  6  7  2  0
  7  8  1  0
  8  9  2  0
  8 10  1  0
 10 11  1  0
 11 12  1  6
 11 13  1  0
 13 14  1  0
  7  2  1  0
M  END
>  <inchikey>  (1093) 
ZXEIMIHWPUJZDW-UHFFFAOYSA-N

>  <tags>  (1093) 
fragmenstein_placed,CpKRS_FrAncestor_bulkdock_iter2

>  <ref_pdb>  (1093) 
x0502c

>  <energy_score>  (1093) 
-4.725027

>  <distance_score>  (1093) 
0.474852

>  <HIPPO Pose ID>  (1093) 
58129

>  <ref_mols>  (1093) 
x0504b

>  <smiles>  (1093) 
Cc1nn(C)cc1C(=O)N[C@H](C)CF

>  <HIPPO Compound ID>  (1093) 
37581

>  <alias>  (1093) 
ZXEIMIHWPUJZDW-ZCFIWIBFSA-N-P49

>  <subsites>  (1093) 


>  <placement_batch>  (1093) 
CpKRS_FrAncestor_bulkdock_iter2

>  <name>  (1093) 
ZXEIMIHWPUJZDW-ZCFIWIBFSA-N-P49

$$$$
BWYRUABDTSTEBE-SSDOTTSWSA-N-P48
     RDKit          3D

 17 17  0  0  0  0  0  0  0  0999 V2000
    4.5346  -15.8246   26.5520 C   0  0  0  0  0  0  0  0  0  0  0  0
    3.3596  -14.9236   26.6059 C   0  0  0  0  0  0  0  0  0  0  0  0
    2.3133  -15.2422   27.3786 N   0  0  0  0  0  0  0  0  0  0  0  0
    1.4673  -14.2203   27.2137 N   0  0  0  0  0  0  0  0  0  0  0  0
    0.2230  -14.2055   27.9337 C   0  0  0  0  0  0  0  0  0  0  0  0
    1.9014  -13.2874   26.3234 C   0  0  0  0  0  0  0  0  0  0  0  0
    3.1502  -13.7061   25.8971 C   0  0  0  0  0  0  0  0  0  0  0  0
    4.0622  -13.0556   24.9532 C   0  0  0  0  0  0  0  0  0  0  0  0
    5.2033  -13.2758   24.9926 O   0  0  0  0  0  0  0  0  0  0  0  0
    3.2496  -12.1863   23.9835 N   0  0  0  0  0  0  0  0  0  0  0  0
    3.6599  -11.4704   22.7850 C   0  0  2  0  0  0  0  0  0  0  0  0
    4.7632  -12.1780   22.0228 C   0  0  0  0  0  0  0  0  0  0  0  0
    5.9596  -11.6795   22.4009 F   0  0  0  0  0  0  0  0  0  0  0  0
    4.0520  -10.0085   22.9901 C   0  0  0  0  0  0  0  0  0  0  0  0
    4.9273   -9.8005   23.9903 F   0  0  0  0  0  0  0  0  0  0  0  0
    4.5612   -9.4596   21.8616 F   0  0  0  0  0  0  0  0  0  0  0  0
    2.9395   -9.2690   23.2838 F   0  0  0  0  0  0  0  0  0  0  0  0
  1  2  1  0
  2  3  2  0
  3  4  1  0
  4  5  1  0
  4  6  1  0
  6  7  2  0
  7  8  1  0
  8  9  2  0
  8 10  1  0
 10 11  1  0
 11 12  1  1
 12 13  1  0
 11 14  1  0
 14 15  1  0
 14 16  1  0
 14 17  1  0
  7  2  1  0
M  END
>  <inchikey>  (1094) 
BWYRUABDTSTEBE-UHFFFAOYSA-N

>  <tags>  (1094) 
fragmenstein_placed,CpKRS_FrAncestor_bulkdock_iter2

>  <ref_pdb>  (1094) 
x0502c

>  <energy_score>  (1094) 
-3.108786

>  <distance_score>  (1094) 
0.409692

>  <HIPPO Pose ID>  (1094) 
58131

>  <ref_mols>  (1094) 
x0504a

>  <smiles>  (1094) 
Cc1nn(C)cc1C(=O)N[C@H](CF)C(F)(F)F

>  <HIPPO Compound ID>  (1094) 
37589

>  <alias>  (1094) 
BWYRUABDTSTEBE-SSDOTTSWSA-N-P48

>  <subsites>  (1094) 


>  <placement_batch>  (1094) 
CpKRS_FrAncestor_bulkdock_iter2

>  <name>  (1094) 
BWYRUABDTSTEBE-SSDOTTSWSA-N-P48

$$$$
WVEQIYKAHRNMHL-UHFFFAOYSA-N-P15
     RDKit          3D

 19 20  0  0  0  0  0  0  0  0999 V2000
    4.0941  -24.2451   16.6388 C   0  0  0  0  0  0  0  0  0  0  0  0
    3.4812  -25.0353   17.7152 C   0  0  0  0  0  0  0  0  0  0  0  0
    4.0651  -25.0431   18.9203 N   0  0  0  0  0  0  0  0  0  0  0  0
    3.2497  -25.8003   19.6649 N   0  0  0  0  0  0  0  0  0  0  0  0
    3.5008  -25.9273   21.0787 C   0  0  0  0  0  0  0  0  0  0  0  0
    2.2298  -26.3657   18.9527 C   0  0  0  0  0  0  0  0  0  0  0  0
    1.2586  -27.3112   19.5647 C   0  0  0  0  0  0  0  0  0  0  0  0
    2.3186  -25.8520   17.6650 C   0  0  0  0  0  0  0  0  0  0  0  0
    1.3811  -26.1907   16.5608 C   0  0  0  0  0  0  0  0  0  0  0  0
    1.4507  -25.3504   15.4034 N   0  0  0  0  0  0  0  0  0  0  0  0
    1.9640  -25.6453   13.9833 C   0  0  0  0  0  0  0  0  0  0  0  0
    2.4835  -26.5957   13.5492 O   0  0  0  0  0  0  0  0  0  0  0  0
    1.6435  -24.5526   12.9877 C   0  0  0  0  0  0  0  0  0  0  0  0
    2.0977  -24.7260   11.6671 C   0  0  0  0  0  0  0  0  0  0  0  0
    1.7324  -23.8390   10.6514 C   0  0  0  0  0  0  0  0  0  0  0  0
    0.9557  -22.7216   10.9408 C   0  0  0  0  0  0  0  0  0  0  0  0
    0.5039  -22.5287   12.2429 C   0  0  0  0  0  0  0  0  0  0  0  0
    0.8289  -23.4486   13.2470 C   0  0  0  0  0  0  0  0  0  0  0  0
    0.2975  -23.2505   14.4621 F   0  0  0  0  0  0  0  0  0  0  0  0
  1  2  1  0
  2  3  2  0
  3  4  1  0
  4  5  1  0
  4  6  1  0
  6  7  1  0
  6  8  2  0
  8  9  1  0
  9 10  1  0
 10 11  1  0
 11 12  2  0
 11 13  1  0
 13 14  2  0
 14 15  1  0
 15 16  2  0
 16 17  1  0
 17 18  2  0
 18 19  1  0
  8  2  1  0
 18 13  1  0
M  END
>  <inchikey>  (1095) 
WVEQIYKAHRNMHL-UHFFFAOYSA-N

>  <tags>  (1095) 
fragmenstein_placed,CpKRS_FrAncestor_bulkdock_iter2

>  <ref_pdb>  (1095) 
x0502c

>  <energy_score>  (1095) 
-7.859306

>  <distance_score>  (1095) 
0.968108

>  <HIPPO Pose ID>  (1095) 
58137

>  <ref_mols>  (1095) 
x0426b

>  <smiles>  (1095) 
Cc1nn(C)c(C)c1CNC(=O)c1ccccc1F

>  <HIPPO Compound ID>  (1095) 
37591

>  <alias>  (1095) 
WVEQIYKAHRNMHL-UHFFFAOYSA-N-P15

>  <subsites>  (1095) 


>  <placement_batch>  (1095) 
CpKRS_FrAncestor_bulkdock_iter2

>  <name>  (1095) 
WVEQIYKAHRNMHL-UHFFFAOYSA-N-P15

$$$$
URYKWHLNPRKPOG-NSHDSACASA-N-P13
     RDKit          3D

 18 19  0  0  0  0  0  0  0  0999 V2000
    4.5997  -15.5812   26.7704 C   0  0  0  0  0  0  0  0  0  0  0  0
    3.4423  -14.7860   26.2909 C   0  0  0  0  0  0  0  0  0  0  0  0
    2.2254  -15.0045   26.8034 N   0  0  0  0  0  0  0  0  0  0  0  0
    1.4368  -14.1437   26.1499 N   0  0  0  0  0  0  0  0  0  0  0  0
    0.0433  -14.0849   26.5083 C   0  0  0  0  0  0  0  0  0  0  0  0
    2.0788  -13.4204   25.1834 C   0  0  0  0  0  0  0  0  0  0  0  0
    1.3548  -12.5315   24.2347 C   0  0  0  0  0  0  0  0  0  0  0  0
    3.4249  -13.7525   25.3138 C   0  0  0  0  0  0  0  0  0  0  0  0
    4.5713  -13.2090   24.5838 C   0  0  0  0  0  0  0  0  0  0  0  0
    5.4553  -13.8966   24.2681 O   0  0  0  0  0  0  0  0  0  0  0  0
    4.3614  -11.7011   24.3809 N   0  0  0  0  0  0  0  0  0  0  0  0
    5.1487  -10.7382   23.6650 C   0  0  1  0  0  0  0  0  0  0  0  0
    5.0498  -10.9864   22.1643 C   0  0  0  0  0  0  0  0  0  0  0  0
    5.4983   -9.6730   21.5656 C   0  0  0  0  0  0  0  0  0  0  0  0
    4.8312   -8.6296   22.4401 C   0  0  0  0  0  0  0  0  0  0  0  0
    4.7702   -9.2380   23.8613 C   0  0  0  0  0  0  0  0  0  0  0  0
    5.7987   -8.5338   24.7588 C   0  0  0  0  0  0  0  0  0  0  0  0
    3.3739   -9.0123   24.4559 C   0  0  0  0  0  0  0  0  0  0  0  0
  1  2  1  0
  2  3  2  0
  3  4  1  0
  4  5  1  0
  4  6  1  0
  6  7  1  0
  6  8  2  0
  8  9  1  0
  9 10  2  0
  9 11  1  0
 12 11  1  1
 12 13  1  0
 13 14  1  0
 14 15  1  0
 15 16  1  0
 16 17  1  0
 16 18  1  0
  8  2  1  0
 16 12  1  0
M  END
>  <inchikey>  (1096) 
URYKWHLNPRKPOG-UHFFFAOYSA-N

>  <tags>  (1096) 
fragmenstein_placed,CpKRS_FrAncestor_bulkdock_iter2

>  <ref_pdb>  (1096) 
x0502c

>  <energy_score>  (1096) 
-17.471921

>  <distance_score>  (1096) 
0.340769

>  <HIPPO Pose ID>  (1096) 
58158

>  <ref_mols>  (1096) 
x0421c

>  <smiles>  (1096) 
Cc1nn(C)c(C)c1C(=O)N[C@H]1CCCC1(C)C

>  <HIPPO Compound ID>  (1096) 
37593

>  <alias>  (1096) 
URYKWHLNPRKPOG-NSHDSACASA-N-P13

>  <subsites>  (1096) 


>  <placement_batch>  (1096) 
CpKRS_FrAncestor_bulkdock_iter2

>  <name>  (1096) 
URYKWHLNPRKPOG-NSHDSACASA-N-P13

$$$$
UKYSHPYRLMPZCK-KCJUWKMLSA-N-P13
     RDKit          3D

 17 18  0  0  0  0  0  0  0  0999 V2000
    4.6094  -15.6041   26.7533 C   0  0  0  0  0  0  0  0  0  0  0  0
    3.4391  -14.8224   26.2845 C   0  0  0  0  0  0  0  0  0  0  0  0
    2.2385  -15.0070   26.8482 N   0  0  0  0  0  0  0  0  0  0  0  0
    1.4334  -14.1706   26.1822 N   0  0  0  0  0  0  0  0  0  0  0  0
    0.0510  -14.0912   26.5761 C   0  0  0  0  0  0  0  0  0  0  0  0
    2.0515  -13.4801   25.1783 C   0  0  0  0  0  0  0  0  0  0  0  0
    1.3153  -12.6028   24.2283 C   0  0  0  0  0  0  0  0  0  0  0  0
    3.3967  -13.8236   25.2756 C   0  0  0  0  0  0  0  0  0  0  0  0
    4.5166  -13.2946   24.4995 C   0  0  0  0  0  0  0  0  0  0  0  0
    5.3606  -13.9896   24.1027 O   0  0  0  0  0  0  0  0  0  0  0  0
    4.3247  -11.7792   24.3532 N   0  0  0  0  0  0  0  0  0  0  0  0
    5.1747  -10.7865   23.7712 C   0  0  1  0  0  0  0  0  0  0  0  0
    5.0239  -10.7093   22.2563 C   0  0  0  0  0  0  0  0  0  0  0  0
    5.4459   -9.2910   21.8812 C   0  0  0  0  0  0  0  0  0  0  0  0
    5.6439   -8.5313   23.1918 C   0  0  0  0  0  0  0  0  0  0  0  0
    4.9243   -9.3560   24.2592 C   0  0  1  0  0  0  0  0  0  0  0  0
    3.4523   -8.9681   24.3725 C   0  0  0  0  0  0  0  0  0  0  0  0
  1  2  1  0
  2  3  2  0
  3  4  1  0
  4  5  1  0
  4  6  1  0
  6  7  1  0
  6  8  2  0
  8  9  1  0
  9 10  2  0
  9 11  1  0
 12 11  1  1
 12 13  1  0
 13 14  1  0
 14 15  1  0
 15 16  1  0
 16 17  1  6
  8  2  1  0
 16 12  1  0
M  END
>  <inchikey>  (1097) 
UKYSHPYRLMPZCK-UHFFFAOYSA-N

>  <tags>  (1097) 
fragmenstein_placed,CpKRS_FrAncestor_bulkdock_iter2

>  <ref_pdb>  (1097) 
x0502c

>  <energy_score>  (1097) 
-12.049045

>  <distance_score>  (1097) 
0.297555

>  <HIPPO Pose ID>  (1097) 
58166

>  <ref_mols>  (1097) 
x0421c

>  <smiles>  (1097) 
Cc1nn(C)c(C)c1C(=O)N[C@H]1CCC[C@H]1C

>  <HIPPO Compound ID>  (1097) 
37594

>  <alias>  (1097) 
UKYSHPYRLMPZCK-KCJUWKMLSA-N-P13

>  <subsites>  (1097) 


>  <placement_batch>  (1097) 
CpKRS_FrAncestor_bulkdock_iter2

>  <name>  (1097) 
UKYSHPYRLMPZCK-KCJUWKMLSA-N-P13

$$$$
DRWMZPGJVBMSAD-UHFFFAOYSA-N-P44
     RDKit          3D

 19 20  0  0  0  0  0  0  0  0999 V2000
   -9.8394  -14.4054   49.1262 C   0  0  0  0  0  0  0  0  0  0  0  0
   -9.3547  -13.2412   48.3421 C   0  0  0  0  0  0  0  0  0  0  0  0
   -8.2501  -12.6095   48.7531 N   0  0  0  0  0  0  0  0  0  0  0  0
   -8.0861  -11.6134   47.8717 N   0  0  0  0  0  0  0  0  0  0  0  0
   -6.9798  -10.7077   48.0699 C   0  0  0  0  0  0  0  0  0  0  0  0
   -9.0618  -11.5633   46.9124 C   0  0  0  0  0  0  0  0  0  0  0  0
   -9.0959  -10.5371   45.8393 C   0  0  0  0  0  0  0  0  0  0  0  0
   -9.9273  -12.6155   47.1955 C   0  0  0  0  0  0  0  0  0  0  0  0
  -11.1826  -12.8953   46.4879 C   0  0  0  0  0  0  0  0  0  0  0  0
  -11.8828  -12.0074   46.2096 O   0  0  0  0  0  0  0  0  0  0  0  0
  -11.3613  -14.4075   46.2805 N   0  0  0  0  0  0  0  0  0  0  0  0
  -12.4839  -15.1577   45.7712 C   0  0  0  0  0  0  0  0  0  0  0  0
  -12.4422  -15.2689   44.2363 C   0  0  1  0  0  0  0  0  0  0  0  0
  -11.4670  -16.3845   43.8192 C   0  0  0  0  0  0  0  0  0  0  0  0
  -12.3102  -17.6370   43.5826 C   0  0  0  0  0  0  0  0  0  0  0  0
  -13.7669  -17.2194   43.7418 C   0  0  0  0  0  0  0  0  0  0  0  0
  -13.7736  -15.6958   43.5573 C   0  0  0  0  0  0  0  0  0  0  0  0
  -15.0364  -15.0738   44.1634 C   0  0  0  0  0  0  0  0  0  0  0  0
  -13.7453  -15.3376   42.0547 C   0  0  0  0  0  0  0  0  0  0  0  0
  1  2  1  0
  2  3  2  0
  3  4  1  0
  4  5  1  0
  4  6  1  0
  6  7  1  0
  6  8  2  0
  8  9  1  0
  9 10  2  0
  9 11  1  0
 11 12  1  0
 13 12  1  1
 13 14  1  0
 14 15  1  0
 15 16  1  0
 16 17  1  0
 17 18  1  0
 17 19  1  0
  8  2  1  0
 17 13  1  0
M  END
>  <inchikey>  (1098) 
DRWMZPGJVBMSAD-UHFFFAOYSA-N

>  <tags>  (1098) 
fragmenstein_placed,CpKRS_FrAncestor_bulkdock_iter2

>  <ref_pdb>  (1098) 
x0502c

>  <energy_score>  (1098) 
-22.08727

>  <distance_score>  (1098) 
0.309381

>  <HIPPO Pose ID>  (1098) 
58169

>  <ref_mols>  (1098) 
x0502b

>  <smiles>  (1098) 
Cc1nn(C)c(C)c1C(=O)NCC1CCCC1(C)C

>  <HIPPO Compound ID>  (1098) 
37597

>  <alias>  (1098) 
DRWMZPGJVBMSAD-UHFFFAOYSA-N-P44

>  <subsites>  (1098) 


>  <placement_batch>  (1098) 
CpKRS_FrAncestor_bulkdock_iter2

>  <name>  (1098) 
DRWMZPGJVBMSAD-UHFFFAOYSA-N-P44

$$$$
QLSCFOJZOKZPKP-UHFFFAOYSA-N-P44
     RDKit          3D

 18 19  0  0  0  0  0  0  0  0999 V2000
   -9.0276  -10.4910   45.8870 C   0  0  0  0  0  0  0  0  0  0  0  0
   -8.9352  -11.5325   46.9405 C   0  0  0  0  0  0  0  0  0  0  0  0
   -7.9125  -11.5237   47.8030 N   0  0  0  0  0  0  0  0  0  0  0  0
   -8.1230  -12.6071   48.5687 N   0  0  0  0  0  0  0  0  0  0  0  0
   -7.1619  -12.9217   49.6021 C   0  0  0  0  0  0  0  0  0  0  0  0
   -9.2946  -13.2675   48.2859 C   0  0  0  0  0  0  0  0  0  0  0  0
   -9.7730  -14.4142   49.1017 C   0  0  0  0  0  0  0  0  0  0  0  0
   -9.8362  -12.6092   47.1852 C   0  0  0  0  0  0  0  0  0  0  0  0
  -11.0907  -12.8636   46.4663 C   0  0  0  0  0  0  0  0  0  0  0  0
  -11.7568  -11.9599   46.1569 O   0  0  0  0  0  0  0  0  0  0  0  0
  -11.3136  -14.3739   46.2848 N   0  0  0  0  0  0  0  0  0  0  0  0
  -12.4494  -15.0983   45.7681 C   0  0  0  0  0  0  0  0  0  0  0  0
  -12.3904  -15.2353   44.2386 C   0  0  1  0  0  0  0  0  0  0  0  0
  -11.4619  -16.3868   43.8248 C   0  0  0  0  0  0  0  0  0  0  0  0
  -12.3476  -17.6210   43.6460 C   0  0  0  0  0  0  0  0  0  0  0  0
  -13.7873  -17.1451   43.7881 C   0  0  0  0  0  0  0  0  0  0  0  0
  -13.7126  -15.6388   43.5599 C   0  0  1  0  0  0  0  0  0  0  0  0
  -14.9613  -14.9064   44.0233 C   0  0  0  0  0  0  0  0  0  0  0  0
  1  2  1  0
  2  3  2  0
  3  4  1  0
  4  5  1  0
  4  6  1  0
  6  7  1  0
  6  8  2  0
  8  9  1  0
  9 10  2  0
  9 11  1  0
 11 12  1  0
 13 12  1  1
 13 14  1  0
 14 15  1  0
 15 16  1  0
 16 17  1  0
 17 18  1  1
  8  2  1  0
 17 13  1  0
M  END
>  <inchikey>  (1099) 
QLSCFOJZOKZPKP-UHFFFAOYSA-N

>  <tags>  (1099) 
fragmenstein_placed,CpKRS_FrAncestor_bulkdock_iter2

>  <ref_pdb>  (1099) 
x0502c

>  <energy_score>  (1099) 
-19.283693

>  <distance_score>  (1099) 
0.31699

>  <HIPPO Pose ID>  (1099) 
58172

>  <ref_mols>  (1099) 
x0502b

>  <smiles>  (1099) 
Cc1nn(C)c(C)c1C(=O)NCC1CCCC1C

>  <HIPPO Compound ID>  (1099) 
37598

>  <alias>  (1099) 
QLSCFOJZOKZPKP-UHFFFAOYSA-N-P44

>  <subsites>  (1099) 


>  <placement_batch>  (1099) 
CpKRS_FrAncestor_bulkdock_iter2

>  <name>  (1099) 
QLSCFOJZOKZPKP-UHFFFAOYSA-N-P44

$$$$
ZHNOKAORPLSYTM-UHFFFAOYSA-N-P46
     RDKit          3D

 17 18  0  0  0  0  0  0  0  0999 V2000
    4.5351  -15.6384   26.9157 C   0  0  0  0  0  0  0  0  0  0  0  0
    3.4832  -14.6562   26.5643 C   0  0  0  0  0  0  0  0  0  0  0  0
    2.3044  -14.7129   27.1972 N   0  0  0  0  0  0  0  0  0  0  0  0
    1.6027  -13.7135   26.6614 N   0  0  0  0  0  0  0  0  0  0  0  0
    0.2690  -13.4847   27.1371 C   0  0  0  0  0  0  0  0  0  0  0  0
    2.2554  -13.0147   25.6862 C   0  0  0  0  0  0  0  0  0  0  0  0
    1.6468  -11.8407   25.0004 C   0  0  0  0  0  0  0  0  0  0  0  0
    3.5179  -13.6100   25.5958 C   0  0  0  0  0  0  0  0  0  0  0  0
    4.6605  -13.1696   24.7788 C   0  0  0  0  0  0  0  0  0  0  0  0
    5.7444  -13.2443   25.1944 O   0  0  0  0  0  0  0  0  0  0  0  0
    4.1373  -12.5648   23.4709 N   0  0  0  0  0  0  0  0  0  0  0  0
    4.8194  -11.8418   22.4434 C   0  0  0  0  0  0  0  0  0  0  0  0
    4.6124  -10.3550   22.6663 C   0  0  0  0  0  0  0  0  0  0  0  0
    5.2152   -9.8094   23.9625 C   0  0  0  0  0  0  0  0  0  0  0  0
    5.5379   -8.3451   23.6762 C   0  0  0  0  0  0  0  0  0  0  0  0
    5.1507   -8.1162   22.2196 C   0  0  0  0  0  0  0  0  0  0  0  0
    5.2411   -9.4881   21.5900 C   0  0  0  0  0  0  0  0  0  0  0  0
  1  2  1  0
  2  3  2  0
  3  4  1  0
  4  5  1  0
  4  6  1  0
  6  7  1  0
  6  8  2  0
  8  9  1  0
  9 10  2  0
  9 11  1  0
 11 12  1  0
 12 13  1  0
 13 14  1  0
 14 15  1  0
 15 16  1  0
 16 17  1  0
  8  2  1  0
 17 13  1  0
M  END
>  <inchikey>  (1100) 
ZHNOKAORPLSYTM-UHFFFAOYSA-N

>  <tags>  (1100) 
fragmenstein_placed,CpKRS_FrAncestor_bulkdock_iter2

>  <ref_pdb>  (1100) 
x0502c

>  <energy_score>  (1100) 
-9.766091

>  <distance_score>  (1100) 
0.596206

>  <HIPPO Pose ID>  (1100) 
58176

>  <ref_mols>  (1100) 
x0502c

>  <smiles>  (1100) 
Cc1nn(C)c(C)c1C(=O)NCC1CCCC1

>  <HIPPO Compound ID>  (1100) 
37599

>  <alias>  (1100) 
ZHNOKAORPLSYTM-UHFFFAOYSA-N-P46

>  <subsites>  (1100) 


>  <placement_batch>  (1100) 
CpKRS_FrAncestor_bulkdock_iter2

>  <name>  (1100) 
ZHNOKAORPLSYTM-UHFFFAOYSA-N-P46

$$$$
SNENMWOMANMJMI-UHFFFAOYSA-N-P44
     RDKit          3D

 18 19  0  0  0  0  0  0  0  0999 V2000
   -9.8037  -14.4160   49.1850 C   0  0  0  0  0  0  0  0  0  0  0  0
   -9.3764  -13.2726   48.3389 C   0  0  0  0  0  0  0  0  0  0  0  0
   -8.2846  -12.5876   48.6955 N   0  0  0  0  0  0  0  0  0  0  0  0
   -8.1762  -11.6247   47.7702 N   0  0  0  0  0  0  0  0  0  0  0  0
   -7.1073  -10.6648   47.9100 C   0  0  0  0  0  0  0  0  0  0  0  0
   -9.1714  -11.6523   46.8300 C   0  0  0  0  0  0  0  0  0  0  0  0
   -9.2607  -10.6769   45.7133 C   0  0  0  0  0  0  0  0  0  0  0  0
   -9.9974  -12.7166   47.1807 C   0  0  0  0  0  0  0  0  0  0  0  0
  -11.2641  -13.0635   46.5214 C   0  0  0  0  0  0  0  0  0  0  0  0
  -11.9694  -12.2055   46.1693 O   0  0  0  0  0  0  0  0  0  0  0  0
  -11.4598  -14.5897   46.4944 N   0  0  0  0  0  0  0  0  0  0  0  0
  -12.5359  -15.3954   45.9360 C   0  0  1  0  0  0  0  0  0  0  0  0
  -13.8568  -14.9478   46.5628 C   0  0  0  0  0  0  0  0  0  0  0  0
  -12.5166  -15.3150   44.3868 C   0  0  0  0  0  0  0  0  0  0  0  0
  -11.5098  -16.3177   43.8058 C   0  0  0  0  0  0  0  0  0  0  0  0
  -12.2903  -17.6126   43.5763 C   0  0  0  0  0  0  0  0  0  0  0  0
  -13.7663  -17.2550   43.6972 C   0  0  0  0  0  0  0  0  0  0  0  0
  -13.8019  -15.7368   43.6691 C   0  0  0  0  0  0  0  0  0  0  0  0
  1  2  1  0
  2  3  2  0
  3  4  1  0
  4  5  1  0
  4  6  1  0
  6  7  1  0
  6  8  2  0
  8  9  1  0
  9 10  2  0
  9 11  1  0
 11 12  1  0
 12 13  1  1
 12 14  1  0
 14 15  1  0
 15 16  1  0
 16 17  1  0
 17 18  1  0
  8  2  1  0
 18 14  1  0
M  END
>  <inchikey>  (1101) 
SNENMWOMANMJMI-UHFFFAOYSA-N

>  <tags>  (1101) 
fragmenstein_placed,CpKRS_FrAncestor_bulkdock_iter2

>  <ref_pdb>  (1101) 
x0502c

>  <energy_score>  (1101) 
-13.480179

>  <distance_score>  (1101) 
0.28642

>  <HIPPO Pose ID>  (1101) 
58178

>  <ref_mols>  (1101) 
x0502b

>  <smiles>  (1101) 
Cc1nn(C)c(C)c1C(=O)NC(C)C1CCCC1

>  <HIPPO Compound ID>  (1101) 
37600

>  <alias>  (1101) 
SNENMWOMANMJMI-UHFFFAOYSA-N-P44

>  <subsites>  (1101) 


>  <placement_batch>  (1101) 
CpKRS_FrAncestor_bulkdock_iter2

>  <name>  (1101) 
SNENMWOMANMJMI-UHFFFAOYSA-N-P44

$$$$
CBCKTYWHPXOMGE-UHFFFAOYSA-N-P44
     RDKit          3D

 19 20  0  0  0  0  0  0  0  0999 V2000
   -9.7421  -14.3794   49.2048 C   0  0  0  0  0  0  0  0  0  0  0  0
   -9.3020  -13.2498   48.3455 C   0  0  0  0  0  0  0  0  0  0  0  0
   -8.2245  -12.5473   48.7169 N   0  0  0  0  0  0  0  0  0  0  0  0
   -8.1108  -11.5937   47.7808 N   0  0  0  0  0  0  0  0  0  0  0  0
   -7.0666  -10.6093   47.9370 C   0  0  0  0  0  0  0  0  0  0  0  0
   -9.0755  -11.6558   46.8119 C   0  0  0  0  0  0  0  0  0  0  0  0
   -9.1468  -10.7042   45.6725 C   0  0  0  0  0  0  0  0  0  0  0  0
   -9.8970  -12.7255   47.1579 C   0  0  0  0  0  0  0  0  0  0  0  0
  -11.1391  -13.0981   46.4624 C   0  0  0  0  0  0  0  0  0  0  0  0
  -11.8120  -12.2536   46.0240 O   0  0  0  0  0  0  0  0  0  0  0  0
  -11.3469  -14.6234   46.4955 N   0  0  0  0  0  0  0  0  0  0  0  0
  -12.4931  -15.4401   46.0727 C   0  0  0  0  0  0  0  0  0  0  0  0
  -13.7537  -14.8310   46.7216 C   0  0  0  0  0  0  0  0  0  0  0  0
  -12.3131  -16.8504   46.6576 C   0  0  0  0  0  0  0  0  0  0  0  0
  -12.5882  -15.3838   44.5085 C   0  0  0  0  0  0  0  0  0  0  0  0
  -13.9038  -15.8272   43.8558 C   0  0  0  0  0  0  0  0  0  0  0  0
  -13.7647  -17.3167   43.5948 C   0  0  0  0  0  0  0  0  0  0  0  0
  -12.2722  -17.5731   43.4504 C   0  0  0  0  0  0  0  0  0  0  0  0
  -11.5665  -16.2590   43.7722 C   0  0  0  0  0  0  0  0  0  0  0  0
  1  2  1  0
  2  3  2  0
  3  4  1  0
  4  5  1  0
  4  6  1  0
  6  7  1  0
  6  8  2  0
  8  9  1  0
  9 10  2  0
  9 11  1  0
 11 12  1  0
 12 13  1  0
 12 14  1  0
 12 15  1  0
 15 16  1  0
 16 17  1  0
 17 18  1  0
 18 19  1  0
  8  2  1  0
 19 15  1  0
M  END
>  <inchikey>  (1102) 
CBCKTYWHPXOMGE-UHFFFAOYSA-N

>  <tags>  (1102) 
fragmenstein_placed,CpKRS_FrAncestor_bulkdock_iter2

>  <ref_pdb>  (1102) 
x0502c

>  <energy_score>  (1102) 
-22.91388

>  <distance_score>  (1102) 
0.315168

>  <HIPPO Pose ID>  (1102) 
58181

>  <ref_mols>  (1102) 
x0502b

>  <smiles>  (1102) 
Cc1nn(C)c(C)c1C(=O)NC(C)(C)C1CCCC1

>  <HIPPO Compound ID>  (1102) 
37601

>  <alias>  (1102) 
CBCKTYWHPXOMGE-UHFFFAOYSA-N-P44

>  <subsites>  (1102) 


>  <placement_batch>  (1102) 
CpKRS_FrAncestor_bulkdock_iter2

>  <name>  (1102) 
CBCKTYWHPXOMGE-UHFFFAOYSA-N-P44

$$$$
BGHUJANBUGIMBI-UHFFFAOYSA-N-P49
     RDKit          3D

 18 18  0  0  0  0  0  0  0  0999 V2000
    5.2634  -15.6114   26.2821 C   0  0  0  0  0  0  0  0  0  0  0  0
    3.9319  -15.0090   26.5035 C   0  0  0  0  0  0  0  0  0  0  0  0
    3.1933  -15.4437   27.5240 N   0  0  0  0  0  0  0  0  0  0  0  0
    2.0955  -14.6873   27.4790 N   0  0  0  0  0  0  0  0  0  0  0  0
    1.1647  -14.8470   28.5653 C   0  0  0  0  0  0  0  0  0  0  0  0
    2.0337  -13.8599   26.3835 C   0  0  0  0  0  0  0  0  0  0  0  0
    0.8244  -13.0833   26.0176 C   0  0  0  0  0  0  0  0  0  0  0  0
    3.2832  -13.9751   25.7732 C   0  0  0  0  0  0  0  0  0  0  0  0
    3.8322  -13.2881   24.5973 C   0  0  0  0  0  0  0  0  0  0  0  0
    4.4817  -13.8950   23.8450 O   0  0  0  0  0  0  0  0  0  0  0  0
    3.3530  -11.8257   24.5484 N   0  0  0  0  0  0  0  0  0  0  0  0
    3.6576  -10.7510   23.5893 C   0  0  0  0  0  0  0  0  0  0  0  0
    4.1203  -11.3692   22.2614 C   0  0  0  0  0  0  0  0  0  0  0  0
    2.3498   -9.9763   23.3600 C   0  0  0  0  0  0  0  0  0  0  0  0
    4.7489   -9.7825   24.1329 C   0  0  0  0  0  0  0  0  0  0  0  0
    5.3090   -8.7664   23.1512 C   0  0  0  0  0  0  0  0  0  0  0  0
    5.7985  -10.4932   24.6124 F   0  0  0  0  0  0  0  0  0  0  0  0
    4.2495   -9.1011   25.2039 F   0  0  0  0  0  0  0  0  0  0  0  0
  1  2  1  0
  2  3  2  0
  3  4  1  0
  4  5  1  0
  4  6  1  0
  6  7  1  0
  6  8  2  0
  8  9  1  0
  9 10  2  0
  9 11  1  0
 11 12  1  0
 12 13  1  0
 12 14  1  0
 12 15  1  0
 15 16  1  0
 15 17  1  0
 15 18  1  0
  8  2  1  0
M  END
>  <inchikey>  (1103) 
BGHUJANBUGIMBI-UHFFFAOYSA-N

>  <tags>  (1103) 
fragmenstein_placed,CpKRS_FrAncestor_bulkdock_iter2

>  <ref_pdb>  (1103) 
x0502c

>  <energy_score>  (1103) 
-12.494663

>  <distance_score>  (1103) 
0.789518

>  <HIPPO Pose ID>  (1103) 
58190

>  <ref_mols>  (1103) 
x0504b

>  <smiles>  (1103) 
Cc1nn(C)c(C)c1C(=O)NC(C)(C)C(C)(F)F

>  <HIPPO Compound ID>  (1103) 
37603

>  <alias>  (1103) 
BGHUJANBUGIMBI-UHFFFAOYSA-N-P49

>  <subsites>  (1103) 


>  <placement_batch>  (1103) 
CpKRS_FrAncestor_bulkdock_iter2

>  <name>  (1103) 
BGHUJANBUGIMBI-UHFFFAOYSA-N-P49

$$$$
CSCVFCLARANYDD-UHFFFAOYSA-N-P48
     RDKit          3D

 18 18  0  0  0  0  0  0  0  0999 V2000
    4.6491  -16.0351   27.4854 C   0  0  0  0  0  0  0  0  0  0  0  0
    3.4382  -15.2311   27.2982 C   0  0  0  0  0  0  0  0  0  0  0  0
    2.3501  -15.5197   28.0053 N   0  0  0  0  0  0  0  0  0  0  0  0
    1.4741  -14.5944   27.6227 N   0  0  0  0  0  0  0  0  0  0  0  0
    0.2151  -14.5416   28.3069 C   0  0  0  0  0  0  0  0  0  0  0  0
    1.9059  -13.7964   26.5969 C   0  0  0  0  0  0  0  0  0  0  0  0
    1.0190  -12.7778   25.9838 C   0  0  0  0  0  0  0  0  0  0  0  0
    3.2400  -14.1542   26.4065 C   0  0  0  0  0  0  0  0  0  0  0  0
    4.2850  -13.6138   25.5378 C   0  0  0  0  0  0  0  0  0  0  0  0
    5.4018  -13.7587   25.8083 O   0  0  0  0  0  0  0  0  0  0  0  0
    3.6428  -12.9546   24.3336 N   0  0  0  0  0  0  0  0  0  0  0  0
    4.2344  -12.4055   23.1383 C   0  0  0  0  0  0  0  0  0  0  0  0
    3.1162  -12.2402   22.1452 C   0  0  0  0  0  0  0  0  0  0  0  0
    5.1975  -13.4597   22.5892 C   0  0  0  0  0  0  0  0  0  0  0  0
    4.8992  -11.0128   23.3315 C   0  0  0  0  0  0  0  0  0  0  0  0
    5.3915  -10.5279   22.1620 F   0  0  0  0  0  0  0  0  0  0  0  0
    4.0044  -10.0829   23.7662 F   0  0  0  0  0  0  0  0  0  0  0  0
    5.9016  -11.0261   24.2299 F   0  0  0  0  0  0  0  0  0  0  0  0
  1  2  1  0
  2  3  2  0
  3  4  1  0
  4  5  1  0
  4  6  1  0
  6  7  1  0
  6  8  2  0
  8  9  1  0
  9 10  2  0
  9 11  1  0
 11 12  1  0
 12 13  1  0
 12 14  1  0
 12 15  1  0
 15 16  1  0
 15 17  1  0
 15 18  1  0
  8  2  1  0
M  END
>  <inchikey>  (1104) 
CSCVFCLARANYDD-UHFFFAOYSA-N

>  <tags>  (1104) 
fragmenstein_placed,CpKRS_FrAncestor_bulkdock_iter2

>  <ref_pdb>  (1104) 
x0502c

>  <energy_score>  (1104) 
-14.655212

>  <distance_score>  (1104) 
0.771448

>  <HIPPO Pose ID>  (1104) 
58192

>  <ref_mols>  (1104) 
x0504a

>  <smiles>  (1104) 
Cc1nn(C)c(C)c1C(=O)NC(C)(C)C(F)(F)F

>  <HIPPO Compound ID>  (1104) 
37604

>  <alias>  (1104) 
CSCVFCLARANYDD-UHFFFAOYSA-N-P48

>  <subsites>  (1104) 


>  <placement_batch>  (1104) 
CpKRS_FrAncestor_bulkdock_iter2

>  <name>  (1104) 
CSCVFCLARANYDD-UHFFFAOYSA-N-P48

$$$$
CPQBUPLNVAKTAC-UHFFFAOYSA-N-P48
     RDKit          3D

 17 17  0  0  0  0  0  0  0  0999 V2000
    4.4733  -15.6945   27.1365 C   0  0  0  0  0  0  0  0  0  0  0  0
    3.2994  -14.8674   26.7685 C   0  0  0  0  0  0  0  0  0  0  0  0
    2.1675  -14.9721   27.4704 N   0  0  0  0  0  0  0  0  0  0  0  0
    1.3241  -14.1316   26.8568 N   0  0  0  0  0  0  0  0  0  0  0  0
    0.0054  -13.9588   27.4150 C   0  0  0  0  0  0  0  0  0  0  0  0
    1.8365  -13.5745   25.7119 C   0  0  0  0  0  0  0  0  0  0  0  0
    0.9936  -12.8296   24.7395 C   0  0  0  0  0  0  0  0  0  0  0  0
    3.1838  -13.9303   25.7019 C   0  0  0  0  0  0  0  0  0  0  0  0
    4.2518  -13.5522   24.7681 C   0  0  0  0  0  0  0  0  0  0  0  0
    5.1126  -14.3042   24.5494 O   0  0  0  0  0  0  0  0  0  0  0  0
    4.0059  -12.1349   24.2268 N   0  0  0  0  0  0  0  0  0  0  0  0
    4.7228  -11.3719   23.2201 C   0  0  1  0  0  0  0  0  0  0  0  0
    4.6162  -12.1050   21.8935 C   0  0  0  0  0  0  0  0  0  0  0  0
    4.2979   -9.9069   23.0757 C   0  0  0  0  0  0  0  0  0  0  0  0
    4.6432   -9.0722   24.2887 C   0  0  0  0  0  0  0  0  0  0  0  0
    4.9016   -9.3469   21.9938 F   0  0  0  0  0  0  0  0  0  0  0  0
    2.9576   -9.7987   22.8560 F   0  0  0  0  0  0  0  0  0  0  0  0
  1  2  1  0
  2  3  2  0
  3  4  1  0
  4  5  1  0
  4  6  1  0
  6  7  1  0
  6  8  2  0
  8  9  1  0
  9 10  2  0
  9 11  1  0
 11 12  1  0
 12 13  1  6
 12 14  1  0
 14 15  1  0
 14 16  1  0
 14 17  1  0
  8  2  1  0
M  END
>  <inchikey>  (1105) 
CPQBUPLNVAKTAC-UHFFFAOYSA-N

>  <tags>  (1105) 
fragmenstein_placed,CpKRS_FrAncestor_bulkdock_iter2

>  <ref_pdb>  (1105) 
x0502c

>  <energy_score>  (1105) 
-17.562979

>  <distance_score>  (1105) 
0.691162

>  <HIPPO Pose ID>  (1105) 
58195

>  <ref_mols>  (1105) 
x0504a

>  <smiles>  (1105) 
Cc1nn(C)c(C)c1C(=O)NC(C)C(C)(F)F

>  <HIPPO Compound ID>  (1105) 
37605

>  <alias>  (1105) 
CPQBUPLNVAKTAC-UHFFFAOYSA-N-P48

>  <subsites>  (1105) 


>  <placement_batch>  (1105) 
CpKRS_FrAncestor_bulkdock_iter2

>  <name>  (1105) 
CPQBUPLNVAKTAC-UHFFFAOYSA-N-P48

$$$$
CBRBMFZENLUKAA-UHFFFAOYSA-N-P48
     RDKit          3D

 17 17  0  0  0  0  0  0  0  0999 V2000
    4.5463  -15.6429   27.0188 C   0  0  0  0  0  0  0  0  0  0  0  0
    3.3197  -14.8711   26.7083 C   0  0  0  0  0  0  0  0  0  0  0  0
    2.2143  -15.0575   27.4359 N   0  0  0  0  0  0  0  0  0  0  0  0
    1.3222  -14.2185   26.8942 N   0  0  0  0  0  0  0  0  0  0  0  0
    0.0317  -14.0866   27.5225 C   0  0  0  0  0  0  0  0  0  0  0  0
    1.7646  -13.6110   25.7474 C   0  0  0  0  0  0  0  0  0  0  0  0
    0.8588  -12.8714   24.8324 C   0  0  0  0  0  0  0  0  0  0  0  0
    3.1242  -13.9035   25.6835 C   0  0  0  0  0  0  0  0  0  0  0  0
    4.1331  -13.4208   24.7386 C   0  0  0  0  0  0  0  0  0  0  0  0
    4.9955  -14.1252   24.3983 O   0  0  0  0  0  0  0  0  0  0  0  0
    3.8394  -11.9545   24.3728 N   0  0  0  0  0  0  0  0  0  0  0  0
    4.5020  -11.0612   23.4227 C   0  0  0  0  0  0  0  0  0  0  0  0
    5.6627  -10.3674   24.1244 C   0  0  0  0  0  0  0  0  0  0  0  0
    4.9541  -11.8451   22.1829 C   0  0  0  0  0  0  0  0  0  0  0  0
    3.5663   -9.9624   22.9346 C   0  0  0  0  0  0  0  0  0  0  0  0
    4.1700   -9.1935   21.9924 F   0  0  0  0  0  0  0  0  0  0  0  0
    3.2435   -9.1142   23.9470 F   0  0  0  0  0  0  0  0  0  0  0  0
  1  2  1  0
  2  3  2  0
  3  4  1  0
  4  5  1  0
  4  6  1  0
  6  7  1  0
  6  8  2  0
  8  9  1  0
  9 10  2  0
  9 11  1  0
 11 12  1  0
 12 13  1  0
 12 14  1  0
 12 15  1  0
 15 16  1  0
 15 17  1  0
  8  2  1  0
M  END
>  <inchikey>  (1106) 
CBRBMFZENLUKAA-UHFFFAOYSA-N

>  <tags>  (1106) 
fragmenstein_placed,CpKRS_FrAncestor_bulkdock_iter2

>  <ref_pdb>  (1106) 
x0502c

>  <energy_score>  (1106) 
-9.800698

>  <distance_score>  (1106) 
0.756664

>  <HIPPO Pose ID>  (1106) 
58198

>  <ref_mols>  (1106) 
x0504a

>  <smiles>  (1106) 
Cc1nn(C)c(C)c1C(=O)NC(C)(C)C(F)F

>  <HIPPO Compound ID>  (1106) 
37606

>  <alias>  (1106) 
CBRBMFZENLUKAA-UHFFFAOYSA-N-P48

>  <subsites>  (1106) 


>  <placement_batch>  (1106) 
CpKRS_FrAncestor_bulkdock_iter2

>  <name>  (1106) 
CBRBMFZENLUKAA-UHFFFAOYSA-N-P48

$$$$
OWQAZZUSLZGGDL-UHFFFAOYSA-N-P49
     RDKit          3D

 16 16  0  0  0  0  0  0  0  0999 V2000
    1.0983  -12.0693   25.6257 C   0  0  0  0  0  0  0  0  0  0  0  0
    1.8372  -13.3135   25.9665 C   0  0  0  0  0  0  0  0  0  0  0  0
    1.2362  -14.2050   26.7723 N   0  0  0  0  0  0  0  0  0  0  0  0
    2.1770  -15.1436   26.9719 N   0  0  0  0  0  0  0  0  0  0  0  0
    1.8962  -16.2428   27.8624 C   0  0  0  0  0  0  0  0  0  0  0  0
    3.3228  -14.9374   26.2585 C   0  0  0  0  0  0  0  0  0  0  0  0
    4.4774  -15.8751   26.2998 C   0  0  0  0  0  0  0  0  0  0  0  0
    3.1598  -13.7245   25.5923 C   0  0  0  0  0  0  0  0  0  0  0  0
    4.2274  -13.0749   24.7943 C   0  0  0  0  0  0  0  0  0  0  0  0
    5.3338  -13.3434   25.0341 O   0  0  0  0  0  0  0  0  0  0  0  0
    3.6418  -12.1049   23.7614 N   0  0  0  0  0  0  0  0  0  0  0  0
    4.2974  -11.1818   22.8618 C   0  0  0  0  0  0  0  0  0  0  0  0
    4.3791   -9.7459   23.4005 C   0  0  0  0  0  0  0  0  0  0  0  0
    5.3660   -8.8905   22.6360 C   0  0  0  0  0  0  0  0  0  0  0  0
    4.7112   -9.7333   24.7158 F   0  0  0  0  0  0  0  0  0  0  0  0
    3.1519   -9.1520   23.3005 F   0  0  0  0  0  0  0  0  0  0  0  0
  1  2  1  0
  2  3  2  0
  3  4  1  0
  4  5  1  0
  4  6  1  0
  6  7  1  0
  6  8  2  0
  8  9  1  0
  9 10  2  0
  9 11  1  0
 11 12  1  0
 12 13  1  0
 13 14  1  0
 13 15  1  0
 13 16  1  0
  8  2  1  0
M  END
>  <inchikey>  (1107) 
OWQAZZUSLZGGDL-UHFFFAOYSA-N

>  <tags>  (1107) 
fragmenstein_placed,CpKRS_FrAncestor_bulkdock_iter2

>  <ref_pdb>  (1107) 
x0502c

>  <energy_score>  (1107) 
-4.046552

>  <distance_score>  (1107) 
0.606137

>  <HIPPO Pose ID>  (1107) 
58205

>  <ref_mols>  (1107) 
x0504b

>  <smiles>  (1107) 
Cc1nn(C)c(C)c1C(=O)NCC(C)(F)F

>  <HIPPO Compound ID>  (1107) 
37608

>  <alias>  (1107) 
OWQAZZUSLZGGDL-UHFFFAOYSA-N-P49

>  <subsites>  (1107) 


>  <placement_batch>  (1107) 
CpKRS_FrAncestor_bulkdock_iter2

>  <name>  (1107) 
OWQAZZUSLZGGDL-UHFFFAOYSA-N-P49

$$$$
DIMXEBMEKWXXDE-UHFFFAOYSA-N-P49
     RDKit          3D

 16 16  0  0  0  0  0  0  0  0999 V2000
    1.1476  -12.1779   25.6740 C   0  0  0  0  0  0  0  0  0  0  0  0
    1.8735  -13.4310   26.0058 C   0  0  0  0  0  0  0  0  0  0  0  0
    1.2637  -14.3205   26.8050 N   0  0  0  0  0  0  0  0  0  0  0  0
    2.1985  -15.2647   27.0059 N   0  0  0  0  0  0  0  0  0  0  0  0
    1.9034  -16.3672   27.8850 C   0  0  0  0  0  0  0  0  0  0  0  0
    3.3501  -15.0620   26.3020 C   0  0  0  0  0  0  0  0  0  0  0  0
    4.5030  -15.9984   26.3492 C   0  0  0  0  0  0  0  0  0  0  0  0
    3.1941  -13.8515   25.6366 C   0  0  0  0  0  0  0  0  0  0  0  0
    4.2647  -13.2037   24.8507 C   0  0  0  0  0  0  0  0  0  0  0  0
    5.3716  -13.4083   25.1399 O   0  0  0  0  0  0  0  0  0  0  0  0
    3.6732  -12.2885   23.7773 N   0  0  0  0  0  0  0  0  0  0  0  0
    4.3165  -11.3484   22.8839 C   0  0  0  0  0  0  0  0  0  0  0  0
    4.4150   -9.9255   23.4485 C   0  0  0  0  0  0  0  0  0  0  0  0
    5.2090   -9.1611   22.6558 F   0  0  0  0  0  0  0  0  0  0  0  0
    4.9682   -9.9091   24.6847 F   0  0  0  0  0  0  0  0  0  0  0  0
    2.6390   -9.1166   23.5158 Br  0  0  0  0  0  0  0  0  0  0  0  0
  1  2  1  0
  2  3  2  0
  3  4  1  0
  4  5  1  0
  4  6  1  0
  6  7  1  0
  6  8  2  0
  8  9  1  0
  9 10  2  0
  9 11  1  0
 11 12  1  0
 12 13  1  0
 13 14  1  0
 13 15  1  0
 13 16  1  0
  8  2  1  0
M  END
>  <inchikey>  (1108) 
DIMXEBMEKWXXDE-UHFFFAOYSA-N

>  <tags>  (1108) 
fragmenstein_placed,CpKRS_FrAncestor_bulkdock_iter2

>  <ref_pdb>  (1108) 
x0502c

>  <energy_score>  (1108) 
-14.975707

>  <distance_score>  (1108) 
0.456648

>  <HIPPO Pose ID>  (1108) 
58211

>  <ref_mols>  (1108) 
x0504b

>  <smiles>  (1108) 
Cc1nn(C)c(C)c1C(=O)NCC(F)(F)Br

>  <HIPPO Compound ID>  (1108) 
37610

>  <alias>  (1108) 
DIMXEBMEKWXXDE-UHFFFAOYSA-N-P49

>  <subsites>  (1108) 


>  <placement_batch>  (1108) 
CpKRS_FrAncestor_bulkdock_iter2

>  <name>  (1108) 
DIMXEBMEKWXXDE-UHFFFAOYSA-N-P49

$$$$
PNFZAWMKHOUONB-UHFFFAOYSA-N-P49
     RDKit          3D

 16 16  0  0  0  0  0  0  0  0999 V2000
    4.6746  -15.9163   26.2985 C   0  0  0  0  0  0  0  0  0  0  0  0
    3.5211  -14.9902   26.2151 C   0  0  0  0  0  0  0  0  0  0  0  0
    2.4076  -15.2683   26.8941 N   0  0  0  0  0  0  0  0  0  0  0  0
    1.6306  -14.2046   26.6918 N   0  0  0  0  0  0  0  0  0  0  0  0
    0.3882  -14.1411   27.4073 C   0  0  0  0  0  0  0  0  0  0  0  0
    2.1449  -13.2824   25.8186 C   0  0  0  0  0  0  0  0  0  0  0  0
    1.4309  -12.0225   25.4743 C   0  0  0  0  0  0  0  0  0  0  0  0
    3.4133  -13.7664   25.4915 C   0  0  0  0  0  0  0  0  0  0  0  0
    4.4896  -13.1357   24.7159 C   0  0  0  0  0  0  0  0  0  0  0  0
    5.5916  -13.3293   25.0291 O   0  0  0  0  0  0  0  0  0  0  0  0
    3.9116  -12.2147   23.6391 N   0  0  0  0  0  0  0  0  0  0  0  0
    4.5626  -11.2567   22.7740 C   0  0  0  0  0  0  0  0  0  0  0  0
    4.5820   -9.8293   23.3446 C   0  0  0  0  0  0  0  0  0  0  0  0
    5.0323   -9.8097   24.6240 F   0  0  0  0  0  0  0  0  0  0  0  0
    5.4303   -9.0528   22.6232 F   0  0  0  0  0  0  0  0  0  0  0  0
    2.9612   -9.0853   23.2865 Cl  0  0  0  0  0  0  0  0  0  0  0  0
  1  2  1  0
  2  3  2  0
  3  4  1  0
  4  5  1  0
  4  6  1  0
  6  7  1  0
  6  8  2  0
  8  9  1  0
  9 10  2  0
  9 11  1  0
 11 12  1  0
 12 13  1  0
 13 14  1  0
 13 15  1  0
 13 16  1  0
  8  2  1  0
M  END
>  <inchikey>  (1109) 
PNFZAWMKHOUONB-UHFFFAOYSA-N

>  <tags>  (1109) 
fragmenstein_placed,CpKRS_FrAncestor_bulkdock_iter2

>  <ref_pdb>  (1109) 
x0502c

>  <energy_score>  (1109) 
-14.409737

>  <distance_score>  (1109) 
0.594653

>  <HIPPO Pose ID>  (1109) 
58214

>  <ref_mols>  (1109) 
x0504b

>  <smiles>  (1109) 
Cc1nn(C)c(C)c1C(=O)NCC(F)(F)Cl

>  <HIPPO Compound ID>  (1109) 
37611

>  <alias>  (1109) 
PNFZAWMKHOUONB-UHFFFAOYSA-N-P49

>  <subsites>  (1109) 


>  <placement_batch>  (1109) 
CpKRS_FrAncestor_bulkdock_iter2

>  <name>  (1109) 
PNFZAWMKHOUONB-UHFFFAOYSA-N-P49

$$$$
GKIMORRPLXOSOE-UHFFFAOYSA-N-P48
     RDKit          3D

 16 16  0  0  0  0  0  0  0  0999 V2000
    4.6813  -15.6738   26.8161 C   0  0  0  0  0  0  0  0  0  0  0  0
    3.4447  -14.9020   26.5474 C   0  0  0  0  0  0  0  0  0  0  0  0
    2.3289  -15.2180   27.2080 N   0  0  0  0  0  0  0  0  0  0  0  0
    1.4365  -14.3125   26.7976 N   0  0  0  0  0  0  0  0  0  0  0  0
    0.1371  -14.3089   27.4270 C   0  0  0  0  0  0  0  0  0  0  0  0
    1.8920  -13.5050   25.7814 C   0  0  0  0  0  0  0  0  0  0  0  0
    1.0113  -12.4974   25.1343 C   0  0  0  0  0  0  0  0  0  0  0  0
    3.2424  -13.8338   25.6199 C   0  0  0  0  0  0  0  0  0  0  0  0
    4.2989  -13.2231   24.7819 C   0  0  0  0  0  0  0  0  0  0  0  0
    5.3927  -13.2339   25.1738 O   0  0  0  0  0  0  0  0  0  0  0  0
    3.6992  -12.5734   23.5324 N   0  0  0  0  0  0  0  0  0  0  0  0
    4.3367  -11.8725   22.4396 C   0  0  0  0  0  0  0  0  0  0  0  0
    4.4062  -10.3543   22.6285 C   0  0  0  0  0  0  0  0  0  0  0  0
    5.0279   -9.9842   23.7675 F   0  0  0  0  0  0  0  0  0  0  0  0
    3.1629   -9.8018   22.6635 F   0  0  0  0  0  0  0  0  0  0  0  0
    5.0610   -9.7683   21.5994 F   0  0  0  0  0  0  0  0  0  0  0  0
  1  2  1  0
  2  3  2  0
  3  4  1  0
  4  5  1  0
  4  6  1  0
  6  7  1  0
  6  8  2  0
  8  9  1  0
  9 10  2  0
  9 11  1  0
 11 12  1  0
 12 13  1  0
 13 14  1  0
 13 15  1  0
 13 16  1  0
  8  2  1  0
M  END
>  <inchikey>  (1110) 
GKIMORRPLXOSOE-UHFFFAOYSA-N

>  <tags>  (1110) 
fragmenstein_placed,CpKRS_FrAncestor_bulkdock_iter2

>  <ref_pdb>  (1110) 
x0502c

>  <energy_score>  (1110) 
-1.408956

>  <distance_score>  (1110) 
0.50118

>  <HIPPO Pose ID>  (1110) 
58216

>  <ref_mols>  (1110) 
x0504a

>  <smiles>  (1110) 
Cc1nn(C)c(C)c1C(=O)NCC(F)(F)F

>  <HIPPO Compound ID>  (1110) 
37612

>  <alias>  (1110) 
GKIMORRPLXOSOE-UHFFFAOYSA-N-P48

>  <subsites>  (1110) 


>  <placement_batch>  (1110) 
CpKRS_FrAncestor_bulkdock_iter2

>  <name>  (1110) 
GKIMORRPLXOSOE-UHFFFAOYSA-N-P48

$$$$
QKELWZBIWRRSAA-UHFFFAOYSA-N-P49
     RDKit          3D

 15 15  0  0  0  0  0  0  0  0999 V2000
    4.9966  -15.6216   26.4611 C   0  0  0  0  0  0  0  0  0  0  0  0
    3.7240  -14.8722   26.3626 C   0  0  0  0  0  0  0  0  0  0  0  0
    2.7563  -15.1078   27.2524 N   0  0  0  0  0  0  0  0  0  0  0  0
    1.7849  -14.2653   26.8992 N   0  0  0  0  0  0  0  0  0  0  0  0
    0.5836  -14.2433   27.6848 C   0  0  0  0  0  0  0  0  0  0  0  0
    2.0374  -13.5576   25.7537 C   0  0  0  0  0  0  0  0  0  0  0  0
    1.0058  -12.7032   25.1063 C   0  0  0  0  0  0  0  0  0  0  0  0
    3.3523  -13.8738   25.4155 C   0  0  0  0  0  0  0  0  0  0  0  0
    4.1839  -13.3752   24.3126 C   0  0  0  0  0  0  0  0  0  0  0  0
    4.9232  -14.0961   23.7781 O   0  0  0  0  0  0  0  0  0  0  0  0
    3.8560  -11.9031   24.0357 N   0  0  0  0  0  0  0  0  0  0  0  0
    4.4378  -10.9739   23.1000 C   0  0  0  0  0  0  0  0  0  0  0  0
    5.2219   -9.8648   23.7817 C   0  0  0  0  0  0  0  0  0  0  0  0
    5.5089   -8.8906   22.8811 F   0  0  0  0  0  0  0  0  0  0  0  0
    4.4488   -9.2799   24.7363 F   0  0  0  0  0  0  0  0  0  0  0  0
  1  2  1  0
  2  3  2  0
  3  4  1  0
  4  5  1  0
  4  6  1  0
  6  7  1  0
  6  8  2  0
  8  9  1  0
  9 10  2  0
  9 11  1  0
 11 12  1  0
 12 13  1  0
 13 14  1  0
 13 15  1  0
  8  2  1  0
M  END
>  <inchikey>  (1111) 
QKELWZBIWRRSAA-UHFFFAOYSA-N

>  <tags>  (1111) 
fragmenstein_placed,CpKRS_FrAncestor_bulkdock_iter2

>  <ref_pdb>  (1111) 
x0502c

>  <energy_score>  (1111) 
-12.029836

>  <distance_score>  (1111) 
0.6199

>  <HIPPO Pose ID>  (1111) 
58220

>  <ref_mols>  (1111) 
x0504b

>  <smiles>  (1111) 
Cc1nn(C)c(C)c1C(=O)NCC(F)F

>  <HIPPO Compound ID>  (1111) 
37613

>  <alias>  (1111) 
QKELWZBIWRRSAA-UHFFFAOYSA-N-P49

>  <subsites>  (1111) 


>  <placement_batch>  (1111) 
CpKRS_FrAncestor_bulkdock_iter2

>  <name>  (1111) 
QKELWZBIWRRSAA-UHFFFAOYSA-N-P49

$$$$
CCMBLZJPMQQXRY-SNVBAGLBSA-N-P49
     RDKit          3D

 19 19  0  0  0  0  0  0  0  0999 V2000
    0.3624  -12.5837   25.4832 C   0  0  0  0  0  0  0  0  0  0  0  0
    1.3620  -13.4728   26.1326 C   0  0  0  0  0  0  0  0  0  0  0  0
    0.9678  -14.2347   27.1641 N   0  0  0  0  0  0  0  0  0  0  0  0
    2.0541  -14.9798   27.4447 N   0  0  0  0  0  0  0  0  0  0  0  0
    1.9993  -15.9323   28.5263 C   0  0  0  0  0  0  0  0  0  0  0  0
    3.1221  -14.7334   26.6264 C   0  0  0  0  0  0  0  0  0  0  0  0
    4.4016  -15.4910   26.7093 C   0  0  0  0  0  0  0  0  0  0  0  0
    2.7347  -13.6908   25.7922 C   0  0  0  0  0  0  0  0  0  0  0  0
    3.5988  -13.0655   24.7754 C   0  0  0  0  0  0  0  0  0  0  0  0
    4.4258  -13.7005   24.2564 O   0  0  0  0  0  0  0  0  0  0  0  0
    3.2219  -11.5832   24.5999 N   0  0  0  0  0  0  0  0  0  0  0  0
    3.7325  -10.5693   23.6582 C   0  0  2  0  0  0  0  0  0  0  0  0
    5.0715  -10.9089   22.9649 C   0  0  0  0  0  0  0  0  0  0  0  0
    4.9123  -12.0311   21.9468 C   0  0  0  0  0  0  0  0  0  0  0  0
    5.6936   -9.7074   22.2302 C   0  0  0  0  0  0  0  0  0  0  0  0
    3.8303   -9.2120   24.3643 C   0  0  0  0  0  0  0  0  0  0  0  0
    2.6716   -8.9264   24.9995 F   0  0  0  0  0  0  0  0  0  0  0  0
    4.0278   -8.2071   23.4800 F   0  0  0  0  0  0  0  0  0  0  0  0
    4.8268   -9.1789   25.2713 F   0  0  0  0  0  0  0  0  0  0  0  0
  1  2  1  0
  2  3  2  0
  3  4  1  0
  4  5  1  0
  4  6  1  0
  6  7  1  0
  6  8  2  0
  8  9  1  0
  9 10  2  0
  9 11  1  0
 12 11  1  1
 12 13  1  0
 13 14  1  0
 13 15  1  0
 12 16  1  0
 16 17  1  0
 16 18  1  0
 16 19  1  0
  8  2  1  0
M  END
>  <inchikey>  (1112) 
CCMBLZJPMQQXRY-UHFFFAOYSA-N

>  <tags>  (1112) 
fragmenstein_placed,CpKRS_FrAncestor_bulkdock_iter2

>  <ref_pdb>  (1112) 
x0502c

>  <energy_score>  (1112) 
-5.759461

>  <distance_score>  (1112) 
0.72109

>  <HIPPO Pose ID>  (1112) 
58226

>  <ref_mols>  (1112) 
x0504b

>  <smiles>  (1112) 
Cc1nn(C)c(C)c1C(=O)N[C@H](C(C)C)C(F)(F)F

>  <HIPPO Compound ID>  (1112) 
37602

>  <alias>  (1112) 
CCMBLZJPMQQXRY-SNVBAGLBSA-N-P49

>  <subsites>  (1112) 


>  <placement_batch>  (1112) 
CpKRS_FrAncestor_bulkdock_iter2

>  <name>  (1112) 
CCMBLZJPMQQXRY-SNVBAGLBSA-N-P49

$$$$
IAEJVPOHQVXFMF-SSDOTTSWSA-N-P48
     RDKit          3D

 17 17  0  0  0  0  0  0  0  0999 V2000
    4.8752  -15.8047   26.5492 C   0  0  0  0  0  0  0  0  0  0  0  0
    3.6136  -15.0369   26.6485 C   0  0  0  0  0  0  0  0  0  0  0  0
    2.6748  -15.4484   27.5025 N   0  0  0  0  0  0  0  0  0  0  0  0
    1.6941  -14.5576   27.3540 N   0  0  0  0  0  0  0  0  0  0  0  0
    0.5783  -14.6066   28.2681 C   0  0  0  0  0  0  0  0  0  0  0  0
    1.8916  -13.6804   26.3125 C   0  0  0  0  0  0  0  0  0  0  0  0
    0.8060  -12.7658   25.8845 C   0  0  0  0  0  0  0  0  0  0  0  0
    3.2199  -13.8725   25.9182 C   0  0  0  0  0  0  0  0  0  0  0  0
    4.1180  -13.1242   25.0065 C   0  0  0  0  0  0  0  0  0  0  0  0
    5.2656  -13.2338   25.1531 O   0  0  0  0  0  0  0  0  0  0  0  0
    3.3218  -12.2711   24.0169 N   0  0  0  0  0  0  0  0  0  0  0  0
    3.7704  -11.4325   22.9208 C   0  0  2  0  0  0  0  0  0  0  0  0
    4.4711  -12.3072   21.9054 C   0  0  0  0  0  0  0  0  0  0  0  0
    4.6650  -10.2430   23.2891 C   0  0  0  0  0  0  0  0  0  0  0  0
    5.0046   -9.5496   22.1714 F   0  0  0  0  0  0  0  0  0  0  0  0
    5.7991  -10.5863   23.9218 F   0  0  0  0  0  0  0  0  0  0  0  0
    3.9973   -9.3688   24.0827 F   0  0  0  0  0  0  0  0  0  0  0  0
  1  2  1  0
  2  3  2  0
  3  4  1  0
  4  5  1  0
  4  6  1  0
  6  7  1  0
  6  8  2  0
  8  9  1  0
  9 10  2  0
  9 11  1  0
 11 12  1  0
 12 13  1  6
 12 14  1  0
 14 15  1  0
 14 16  1  0
 14 17  1  0
  8  2  1  0
M  END
>  <inchikey>  (1113) 
IAEJVPOHQVXFMF-UHFFFAOYSA-N

>  <tags>  (1113) 
fragmenstein_placed,CpKRS_FrAncestor_bulkdock_iter2

>  <ref_pdb>  (1113) 
x0502c

>  <energy_score>  (1113) 
-6.244743

>  <distance_score>  (1113) 
0.50809

>  <HIPPO Pose ID>  (1113) 
58228

>  <ref_mols>  (1113) 
x0504a

>  <smiles>  (1113) 
Cc1nn(C)c(C)c1C(=O)N[C@H](C)C(F)(F)F

>  <HIPPO Compound ID>  (1113) 
37607

>  <alias>  (1113) 
IAEJVPOHQVXFMF-SSDOTTSWSA-N-P48

>  <subsites>  (1113) 


>  <placement_batch>  (1113) 
CpKRS_FrAncestor_bulkdock_iter2

>  <name>  (1113) 
IAEJVPOHQVXFMF-SSDOTTSWSA-N-P48

$$$$
XPAWSSZIPBYNMC-ZCFIWIBFSA-N-P48
     RDKit          3D

 16 16  0  0  0  0  0  0  0  0999 V2000
    4.8878  -15.6036   26.9072 C   0  0  0  0  0  0  0  0  0  0  0  0
    3.5727  -14.9291   26.8315 C   0  0  0  0  0  0  0  0  0  0  0  0
    2.6615  -15.1574   27.7797 N   0  0  0  0  0  0  0  0  0  0  0  0
    1.6262  -14.3886   27.4232 N   0  0  0  0  0  0  0  0  0  0  0  0
    0.5442  -14.2497   28.3642 C   0  0  0  0  0  0  0  0  0  0  0  0
    1.7653  -13.8230   26.1791 C   0  0  0  0  0  0  0  0  0  0  0  0
    0.6223  -13.2077   25.4578 C   0  0  0  0  0  0  0  0  0  0  0  0
    3.1028  -14.0230   25.8378 C   0  0  0  0  0  0  0  0  0  0  0  0
    3.8798  -13.5491   24.6835 C   0  0  0  0  0  0  0  0  0  0  0  0
    4.7526  -14.2065   24.2825 O   0  0  0  0  0  0  0  0  0  0  0  0
    3.3055  -12.2250   24.1543 N   0  0  0  0  0  0  0  0  0  0  0  0
    3.7490  -11.3718   23.0634 C   0  0  2  0  0  0  0  0  0  0  0  0
    4.2632  -12.2191   21.9123 C   0  0  0  0  0  0  0  0  0  0  0  0
    4.8106  -10.3411   23.4344 C   0  0  0  0  0  0  0  0  0  0  0  0
    5.1401   -9.6122   22.3317 F   0  0  0  0  0  0  0  0  0  0  0  0
    4.2799   -9.4455   24.3118 F   0  0  0  0  0  0  0  0  0  0  0  0
  1  2  1  0
  2  3  2  0
  3  4  1  0
  4  5  1  0
  4  6  1  0
  6  7  1  0
  6  8  2  0
  8  9  1  0
  9 10  2  0
  9 11  1  0
 11 12  1  0
 12 13  1  6
 12 14  1  0
 14 15  1  0
 14 16  1  0
  8  2  1  0
M  END
>  <inchikey>  (1114) 
XPAWSSZIPBYNMC-UHFFFAOYSA-N

>  <tags>  (1114) 
fragmenstein_placed,CpKRS_FrAncestor_bulkdock_iter2

>  <ref_pdb>  (1114) 
x0502c

>  <energy_score>  (1114) 
-14.228367

>  <distance_score>  (1114) 
0.571313

>  <HIPPO Pose ID>  (1114) 
58237

>  <ref_mols>  (1114) 
x0504a

>  <smiles>  (1114) 
Cc1nn(C)c(C)c1C(=O)N[C@H](C)C(F)F

>  <HIPPO Compound ID>  (1114) 
37609

>  <alias>  (1114) 
XPAWSSZIPBYNMC-ZCFIWIBFSA-N-P48

>  <subsites>  (1114) 


>  <placement_batch>  (1114) 
CpKRS_FrAncestor_bulkdock_iter2

>  <name>  (1114) 
XPAWSSZIPBYNMC-ZCFIWIBFSA-N-P48

$$$$
LRCUIHGIPOKQAD-SSDOTTSWSA-N-P48
     RDKit          3D

 18 18  0  0  0  0  0  0  0  0999 V2000
    0.8450  -12.7846   25.8140 C   0  0  0  0  0  0  0  0  0  0  0  0
    1.8787  -13.7559   26.2418 C   0  0  0  0  0  0  0  0  0  0  0  0
    1.5238  -14.6737   27.1499 N   0  0  0  0  0  0  0  0  0  0  0  0
    2.6537  -15.3479   27.3907 N   0  0  0  0  0  0  0  0  0  0  0  0
    2.6900  -16.3212   28.4535 C   0  0  0  0  0  0  0  0  0  0  0  0
    3.6816  -15.0033   26.5613 C   0  0  0  0  0  0  0  0  0  0  0  0
    4.9693  -15.7358   26.5495 C   0  0  0  0  0  0  0  0  0  0  0  0
    3.2489  -13.8927   25.8467 C   0  0  0  0  0  0  0  0  0  0  0  0
    4.1155  -13.0971   24.9568 C   0  0  0  0  0  0  0  0  0  0  0  0
    5.2519  -13.0304   25.1860 O   0  0  0  0  0  0  0  0  0  0  0  0
    3.2900  -12.4496   23.8471 N   0  0  0  0  0  0  0  0  0  0  0  0
    3.7030  -11.6458   22.7092 C   0  0  2  0  0  0  0  0  0  0  0  0
    4.9679  -12.1857   22.0790 C   0  0  0  0  0  0  0  0  0  0  0  0
    5.0374  -11.7197   20.8044 F   0  0  0  0  0  0  0  0  0  0  0  0
    3.9518  -10.1644   23.0134 C   0  0  0  0  0  0  0  0  0  0  0  0
    4.4567   -9.4968   21.9494 F   0  0  0  0  0  0  0  0  0  0  0  0
    4.7990   -9.9633   24.0437 F   0  0  0  0  0  0  0  0  0  0  0  0
    2.7863   -9.5335   23.3285 F   0  0  0  0  0  0  0  0  0  0  0  0
  1  2  1  0
  2  3  2  0
  3  4  1  0
  4  5  1  0
  4  6  1  0
  6  7  1  0
  6  8  2  0
  8  9  1  0
  9 10  2  0
  9 11  1  0
 11 12  1  0
 12 13  1  1
 13 14  1  0
 12 15  1  0
 15 16  1  0
 15 17  1  0
 15 18  1  0
  8  2  1  0
M  END
>  <inchikey>  (1115) 
LRCUIHGIPOKQAD-UHFFFAOYSA-N

>  <tags>  (1115) 
fragmenstein_placed,CpKRS_FrAncestor_bulkdock_iter2

>  <ref_pdb>  (1115) 
x0502c

>  <energy_score>  (1115) 
-10.305093

>  <distance_score>  (1115) 
0.564259

>  <HIPPO Pose ID>  (1115) 
58240

>  <ref_mols>  (1115) 
x0504a

>  <smiles>  (1115) 
Cc1nn(C)c(C)c1C(=O)N[C@H](CF)C(F)(F)F

>  <HIPPO Compound ID>  (1115) 
37614

>  <alias>  (1115) 
LRCUIHGIPOKQAD-SSDOTTSWSA-N-P48

>  <subsites>  (1115) 


>  <placement_batch>  (1115) 
CpKRS_FrAncestor_bulkdock_iter2

>  <name>  (1115) 
LRCUIHGIPOKQAD-SSDOTTSWSA-N-P48

$$$$
CXDWILACXCTYPS-UHFFFAOYSA-N-P45
     RDKit          3D

 18 19  0  0  0  0  0  0  0  0999 V2000
    4.5216  -15.6028   27.1959 C   0  0  0  0  0  0  0  0  0  0  0  0
    3.3757  -14.7171   26.8716 C   0  0  0  0  0  0  0  0  0  0  0  0
    2.2776  -14.8168   27.6294 N   0  0  0  0  0  0  0  0  0  0  0  0
    1.4554  -13.9249   27.1040 N   0  0  0  0  0  0  0  0  0  0  0  0
    1.9268  -13.2731   25.9991 C   0  0  0  0  0  0  0  0  0  0  0  0
    1.0414  -12.3020   25.3137 C   0  0  0  0  0  0  0  0  0  0  0  0
    3.2420  -13.7200   25.8358 C   0  0  0  0  0  0  0  0  0  0  0  0
    4.3326  -13.3053   24.9065 C   0  0  0  0  0  0  0  0  0  0  0  0
    5.4142  -13.6672   25.1426 O   0  0  0  0  0  0  0  0  0  0  0  0
    3.8161  -12.3534   23.8126 N   0  0  0  0  0  0  0  0  0  0  0  0
    4.5080  -11.7211   22.7207 C   0  0  0  0  0  0  0  0  0  0  0  0
    4.2921  -10.2043   22.6480 C   0  0  2  0  0  0  0  0  0  0  0  0
    5.0478   -9.5736   21.4820 C   0  0  0  0  0  0  0  0  0  0  0  0
    4.8913   -8.0963   21.7674 C   0  0  0  0  0  0  0  0  0  0  0  0
    5.1681   -7.9629   23.2418 C   0  0  0  0  0  0  0  0  0  0  0  0
    4.7490   -9.3187   23.8432 C   0  0  0  0  0  0  0  0  0  0  0  0
    5.9802   -9.8504   24.5419 C   0  0  0  0  0  0  0  0  0  0  0  0
    3.6067   -9.1184   24.8277 C   0  0  0  0  0  0  0  0  0  0  0  0
  1  2  1  0
  2  3  2  0
  3  4  1  0
  4  5  1  0
  5  6  1  0
  5  7  2  0
  7  8  1  0
  8  9  2  0
  8 10  1  0
 10 11  1  0
 12 11  1  1
 12 13  1  0
 13 14  1  0
 14 15  1  0
 15 16  1  0
 16 17  1  0
 16 18  1  0
  7  2  1  0
 16 12  1  0
M  END
>  <inchikey>  (1116) 
CXDWILACXCTYPS-UHFFFAOYSA-N

>  <tags>  (1116) 
fragmenstein_placed,CpKRS_FrAncestor_bulkdock_iter2

>  <ref_pdb>  (1116) 
x0502c

>  <energy_score>  (1116) 
-21.100391

>  <distance_score>  (1116) 
0.514388

>  <HIPPO Pose ID>  (1116) 
58243

>  <ref_mols>  (1116) 
x0502a

>  <smiles>  (1116) 
Cc1n[nH]c(C)c1C(=O)NCC1CCCC1(C)C

>  <HIPPO Compound ID>  (1116) 
37615

>  <alias>  (1116) 
CXDWILACXCTYPS-UHFFFAOYSA-N-P45

>  <subsites>  (1116) 


>  <placement_batch>  (1116) 
CpKRS_FrAncestor_bulkdock_iter2

>  <name>  (1116) 
CXDWILACXCTYPS-UHFFFAOYSA-N-P45

$$$$
ZJGDBZTUCIUJMP-UHFFFAOYSA-N-P45
     RDKit          3D

 17 18  0  0  0  0  0  0  0  0999 V2000
    4.6153  -15.6663   27.2443 C   0  0  0  0  0  0  0  0  0  0  0  0
    3.4521  -14.8032   26.9328 C   0  0  0  0  0  0  0  0  0  0  0  0
    2.3568  -14.9341   27.6886 N   0  0  0  0  0  0  0  0  0  0  0  0
    1.5141  -14.0571   27.1697 N   0  0  0  0  0  0  0  0  0  0  0  0
    1.9785  -13.3771   26.0789 C   0  0  0  0  0  0  0  0  0  0  0  0
    1.0846  -12.4031   25.4107 C   0  0  0  0  0  0  0  0  0  0  0  0
    3.3010  -13.7999   25.9110 C   0  0  0  0  0  0  0  0  0  0  0  0
    4.3839  -13.3451   24.9946 C   0  0  0  0  0  0  0  0  0  0  0  0
    5.4814  -13.6314   25.2576 O   0  0  0  0  0  0  0  0  0  0  0  0
    3.8290  -12.4578   23.8703 N   0  0  0  0  0  0  0  0  0  0  0  0
    4.4978  -11.8112   22.7748 C   0  0  0  0  0  0  0  0  0  0  0  0
    4.2727  -10.2993   22.7655 C   0  0  2  0  0  0  0  0  0  0  0  0
    4.9919   -9.6072   21.6065 C   0  0  0  0  0  0  0  0  0  0  0  0
    5.1506   -8.1816   22.0950 C   0  0  0  0  0  0  0  0  0  0  0  0
    5.6269   -8.3790   23.5188 C   0  0  0  0  0  0  0  0  0  0  0  0
    4.7974   -9.5649   24.0246 C   0  0  1  0  0  0  0  0  0  0  0  0
    3.6377   -9.0572   24.8632 C   0  0  0  0  0  0  0  0  0  0  0  0
  1  2  1  0
  2  3  2  0
  3  4  1  0
  4  5  1  0
  5  6  1  0
  5  7  2  0
  7  8  1  0
  8  9  2  0
  8 10  1  0
 10 11  1  0
 12 11  1  1
 12 13  1  0
 13 14  1  0
 14 15  1  0
 15 16  1  0
 16 17  1  1
  7  2  1  0
 16 12  1  0
M  END
>  <inchikey>  (1117) 
ZJGDBZTUCIUJMP-UHFFFAOYSA-N

>  <tags>  (1117) 
fragmenstein_placed,CpKRS_FrAncestor_bulkdock_iter2

>  <ref_pdb>  (1117) 
x0502c

>  <energy_score>  (1117) 
-9.90249

>  <distance_score>  (1117) 
0.338088

>  <HIPPO Pose ID>  (1117) 
58246

>  <ref_mols>  (1117) 
x0502a

>  <smiles>  (1117) 
Cc1n[nH]c(C)c1C(=O)NCC1CCCC1C

>  <HIPPO Compound ID>  (1117) 
37616

>  <alias>  (1117) 
ZJGDBZTUCIUJMP-UHFFFAOYSA-N-P45

>  <subsites>  (1117) 


>  <placement_batch>  (1117) 
CpKRS_FrAncestor_bulkdock_iter2

>  <name>  (1117) 
ZJGDBZTUCIUJMP-UHFFFAOYSA-N-P45

$$$$
ZPSHDAWYKKXHGE-UHFFFAOYSA-N-P44
     RDKit          3D

 16 17  0  0  0  0  0  0  0  0999 V2000
   -9.7976  -14.3928   49.1476 C   0  0  0  0  0  0  0  0  0  0  0  0
   -9.3371  -13.2514   48.3162 C   0  0  0  0  0  0  0  0  0  0  0  0
   -8.2136  -12.6127   48.6663 N   0  0  0  0  0  0  0  0  0  0  0  0
   -8.0801  -11.6538   47.7452 N   0  0  0  0  0  0  0  0  0  0  0  0
   -9.0939  -11.6198   46.8333 C   0  0  0  0  0  0  0  0  0  0  0  0
   -9.1473  -10.6151   45.7469 C   0  0  0  0  0  0  0  0  0  0  0  0
   -9.9481  -12.6608   47.1692 C   0  0  0  0  0  0  0  0  0  0  0  0
  -11.2143  -12.9634   46.4928 C   0  0  0  0  0  0  0  0  0  0  0  0
  -11.9018  -12.0854   46.1576 O   0  0  0  0  0  0  0  0  0  0  0  0
  -11.4225  -14.4828   46.3997 N   0  0  0  0  0  0  0  0  0  0  0  0
  -12.4802  -15.2472   45.7877 C   0  0  0  0  0  0  0  0  0  0  0  0
  -12.3419  -15.3036   44.2596 C   0  0  0  0  0  0  0  0  0  0  0  0
  -13.6682  -15.6275   43.5696 C   0  0  0  0  0  0  0  0  0  0  0  0
  -13.7988  -17.1355   43.7025 C   0  0  0  0  0  0  0  0  0  0  0  0
  -12.3734  -17.6618   43.5979 C   0  0  0  0  0  0  0  0  0  0  0  0
  -11.4491  -16.4625   43.8097 C   0  0  0  0  0  0  0  0  0  0  0  0
  1  2  1  0
  2  3  2  0
  3  4  1  0
  4  5  1  0
  5  6  1  0
  5  7  2  0
  7  8  1  0
  8  9  2  0
  8 10  1  0
 10 11  1  0
 11 12  1  0
 12 13  1  0
 13 14  1  0
 14 15  1  0
 15 16  1  0
  7  2  1  0
 16 12  1  0
M  END
>  <inchikey>  (1118) 
ZPSHDAWYKKXHGE-UHFFFAOYSA-N

>  <tags>  (1118) 
fragmenstein_placed,CpKRS_FrAncestor_bulkdock_iter2

>  <ref_pdb>  (1118) 
x0502c

>  <energy_score>  (1118) 
-4.265702

>  <distance_score>  (1118) 
0.277867

>  <HIPPO Pose ID>  (1118) 
58250

>  <ref_mols>  (1118) 
x0502b

>  <smiles>  (1118) 
Cc1n[nH]c(C)c1C(=O)NCC1CCCC1

>  <HIPPO Compound ID>  (1118) 
37617

>  <alias>  (1118) 
ZPSHDAWYKKXHGE-UHFFFAOYSA-N-P44

>  <subsites>  (1118) 


>  <placement_batch>  (1118) 
CpKRS_FrAncestor_bulkdock_iter2

>  <name>  (1118) 
ZPSHDAWYKKXHGE-UHFFFAOYSA-N-P44

$$$$
RHLKCAFGDVFZNY-UHFFFAOYSA-N-P44
     RDKit          3D

 17 18  0  0  0  0  0  0  0  0999 V2000
   -9.7357  -14.3724   49.1946 C   0  0  0  0  0  0  0  0  0  0  0  0
   -9.3048  -13.2404   48.3346 C   0  0  0  0  0  0  0  0  0  0  0  0
   -8.1872  -12.5764   48.6545 N   0  0  0  0  0  0  0  0  0  0  0  0
   -8.0838  -11.6343   47.7121 N   0  0  0  0  0  0  0  0  0  0  0  0
   -9.1124  -11.6347   46.8160 C   0  0  0  0  0  0  0  0  0  0  0  0
   -9.2006  -10.6526   45.7116 C   0  0  0  0  0  0  0  0  0  0  0  0
   -9.9429  -12.6829   47.1859 C   0  0  0  0  0  0  0  0  0  0  0  0
  -11.2157  -13.0215   46.5415 C   0  0  0  0  0  0  0  0  0  0  0  0
  -11.9315  -12.1643   46.2115 O   0  0  0  0  0  0  0  0  0  0  0  0
  -11.3967  -14.5464   46.4875 N   0  0  0  0  0  0  0  0  0  0  0  0
  -12.4664  -15.3496   45.9243 C   0  0  2  0  0  0  0  0  0  0  0  0
  -12.5234  -16.6961   46.6365 C   0  0  0  0  0  0  0  0  0  0  0  0
  -12.3713  -15.3737   44.3785 C   0  0  0  0  0  0  0  0  0  0  0  0
  -11.4638  -16.4492   43.7832 C   0  0  0  0  0  0  0  0  0  0  0  0
  -12.3531  -17.6504   43.4813 C   0  0  0  0  0  0  0  0  0  0  0  0
  -13.7897  -17.1473   43.4843 C   0  0  0  0  0  0  0  0  0  0  0  0
  -13.7090  -15.6421   43.6813 C   0  0  0  0  0  0  0  0  0  0  0  0
  1  2  1  0
  2  3  2  0
  3  4  1  0
  4  5  1  0
  5  6  1  0
  5  7  2  0
  7  8  1  0
  8  9  2  0
  8 10  1  0
 10 11  1  0
 11 12  1  1
 11 13  1  0
 13 14  1  0
 14 15  1  0
 15 16  1  0
 16 17  1  0
  7  2  1  0
 17 13  1  0
M  END
>  <inchikey>  (1119) 
RHLKCAFGDVFZNY-UHFFFAOYSA-N

>  <tags>  (1119) 
fragmenstein_placed,CpKRS_FrAncestor_bulkdock_iter2

>  <ref_pdb>  (1119) 
x0502c

>  <energy_score>  (1119) 
-6.045247

>  <distance_score>  (1119) 
0.285381

>  <HIPPO Pose ID>  (1119) 
58253

>  <ref_mols>  (1119) 
x0502b

>  <smiles>  (1119) 
Cc1n[nH]c(C)c1C(=O)NC(C)C1CCCC1

>  <HIPPO Compound ID>  (1119) 
37618

>  <alias>  (1119) 
RHLKCAFGDVFZNY-UHFFFAOYSA-N-P44

>  <subsites>  (1119) 


>  <placement_batch>  (1119) 
CpKRS_FrAncestor_bulkdock_iter2

>  <name>  (1119) 
RHLKCAFGDVFZNY-UHFFFAOYSA-N-P44

$$$$
USIIZTGSHRXDON-UHFFFAOYSA-N-P44
     RDKit          3D

 18 19  0  0  0  0  0  0  0  0999 V2000
   -9.8067  -14.3530   49.1953 C   0  0  0  0  0  0  0  0  0  0  0  0
   -9.3296  -13.2513   48.3200 C   0  0  0  0  0  0  0  0  0  0  0  0
   -8.2363  -12.5739   48.6929 N   0  0  0  0  0  0  0  0  0  0  0  0
   -8.0695  -11.6634   47.7301 N   0  0  0  0  0  0  0  0  0  0  0  0
   -9.0353  -11.6944   46.7684 C   0  0  0  0  0  0  0  0  0  0  0  0
   -9.0440  -10.7469   45.6297 C   0  0  0  0  0  0  0  0  0  0  0  0
   -9.8902  -12.7350   47.1103 C   0  0  0  0  0  0  0  0  0  0  0  0
  -11.1143  -13.0871   46.3751 C   0  0  0  0  0  0  0  0  0  0  0  0
  -11.7261  -12.2380   45.8622 O   0  0  0  0  0  0  0  0  0  0  0  0
  -11.3922  -14.5984   46.4718 N   0  0  0  0  0  0  0  0  0  0  0  0
  -12.5514  -15.3855   46.0315 C   0  0  0  0  0  0  0  0  0  0  0  0
  -12.4356  -16.7865   46.6540 C   0  0  0  0  0  0  0  0  0  0  0  0
  -13.8093  -14.7177   46.6249 C   0  0  0  0  0  0  0  0  0  0  0  0
  -12.5978  -15.3669   44.4651 C   0  0  0  0  0  0  0  0  0  0  0  0
  -13.8974  -15.8154   43.7849 C   0  0  0  0  0  0  0  0  0  0  0  0
  -13.7609  -17.3104   43.5559 C   0  0  0  0  0  0  0  0  0  0  0  0
  -12.2669  -17.5792   43.4585 C   0  0  0  0  0  0  0  0  0  0  0  0
  -11.5599  -16.2667   43.7832 C   0  0  0  0  0  0  0  0  0  0  0  0
  1  2  1  0
  2  3  2  0
  3  4  1  0
  4  5  1  0
  5  6  1  0
  5  7  2  0
  7  8  1  0
  8  9  2  0
  8 10  1  0
 10 11  1  0
 11 12  1  0
 11 13  1  0
 11 14  1  0
 14 15  1  0
 15 16  1  0
 16 17  1  0
 17 18  1  0
  7  2  1  0
 18 14  1  0
M  END
>  <inchikey>  (1120) 
USIIZTGSHRXDON-UHFFFAOYSA-N

>  <tags>  (1120) 
fragmenstein_placed,CpKRS_FrAncestor_bulkdock_iter2

>  <ref_pdb>  (1120) 
x0502c

>  <energy_score>  (1120) 
-32.220562

>  <distance_score>  (1120) 
0.30573

>  <HIPPO Pose ID>  (1120) 
58256

>  <ref_mols>  (1120) 
x0502b

>  <smiles>  (1120) 
Cc1n[nH]c(C)c1C(=O)NC(C)(C)C1CCCC1

>  <HIPPO Compound ID>  (1120) 
37619

>  <alias>  (1120) 
USIIZTGSHRXDON-UHFFFAOYSA-N-P44

>  <subsites>  (1120) 


>  <placement_batch>  (1120) 
CpKRS_FrAncestor_bulkdock_iter2

>  <name>  (1120) 
USIIZTGSHRXDON-UHFFFAOYSA-N-P44

$$$$
UBXZSUANIPSXJD-UHFFFAOYSA-N-P49
     RDKit          3D

 15 15  0  0  0  0  0  0  0  0999 V2000
    0.3375  -12.7648   25.7016 C   0  0  0  0  0  0  0  0  0  0  0  0
    1.3843  -13.6521   26.2711 C   0  0  0  0  0  0  0  0  0  0  0  0
    1.1134  -14.3446   27.3871 N   0  0  0  0  0  0  0  0  0  0  0  0
    2.2108  -15.0907   27.5784 N   0  0  0  0  0  0  0  0  0  0  0  0
    3.1767  -14.9034   26.6347 C   0  0  0  0  0  0  0  0  0  0  0  0
    4.4555  -15.6496   26.6607 C   0  0  0  0  0  0  0  0  0  0  0  0
    2.6867  -13.9430   25.7635 C   0  0  0  0  0  0  0  0  0  0  0  0
    3.3855  -13.4552   24.5687 C   0  0  0  0  0  0  0  0  0  0  0  0
    4.0020  -14.2024   23.9240 O   0  0  0  0  0  0  0  0  0  0  0  0
    3.1084  -11.9593   24.3657 N   0  0  0  0  0  0  0  0  0  0  0  0
    3.6116  -11.0366   23.3713 C   0  0  0  0  0  0  0  0  0  0  0  0
    4.7912  -10.1904   23.8573 C   0  0  0  0  0  0  0  0  0  0  0  0
    5.3331   -9.2687   22.7839 C   0  0  0  0  0  0  0  0  0  0  0  0
    4.3990   -9.4332   24.9169 F   0  0  0  0  0  0  0  0  0  0  0  0
    5.7920  -10.9851   24.3047 F   0  0  0  0  0  0  0  0  0  0  0  0
  1  2  1  0
  2  3  2  0
  3  4  1  0
  4  5  1  0
  5  6  1  0
  5  7  2  0
  7  8  1  0
  8  9  2  0
  8 10  1  0
 10 11  1  0
 11 12  1  0
 12 13  1  0
 12 14  1  0
 12 15  1  0
  7  2  1  0
M  END
>  <inchikey>  (1121) 
UBXZSUANIPSXJD-UHFFFAOYSA-N

>  <tags>  (1121) 
fragmenstein_placed,CpKRS_FrAncestor_bulkdock_iter2

>  <ref_pdb>  (1121) 
x0502c

>  <energy_score>  (1121) 
-4.109239

>  <distance_score>  (1121) 
0.679699

>  <HIPPO Pose ID>  (1121) 
58259

>  <ref_mols>  (1121) 
x0504b

>  <smiles>  (1121) 
Cc1n[nH]c(C)c1C(=O)NCC(C)(F)F

>  <HIPPO Compound ID>  (1121) 
37620

>  <alias>  (1121) 
UBXZSUANIPSXJD-UHFFFAOYSA-N-P49

>  <subsites>  (1121) 


>  <placement_batch>  (1121) 
CpKRS_FrAncestor_bulkdock_iter2

>  <name>  (1121) 
UBXZSUANIPSXJD-UHFFFAOYSA-N-P49

$$$$
GZFAWCDADBSKKY-UHFFFAOYSA-N-P49
     RDKit          3D

 14 14  0  0  0  0  0  0  0  0999 V2000
    4.0301  -15.9334   26.7764 C   0  0  0  0  0  0  0  0  0  0  0  0
    2.9663  -14.9043   26.6574 C   0  0  0  0  0  0  0  0  0  0  0  0
    1.9531  -14.8667   27.5346 N   0  0  0  0  0  0  0  0  0  0  0  0
    1.2404  -13.8067   27.1505 N   0  0  0  0  0  0  0  0  0  0  0  0
    1.6978  -13.1961   26.0194 C   0  0  0  0  0  0  0  0  0  0  0  0
    0.9608  -12.0696   25.3980 C   0  0  0  0  0  0  0  0  0  0  0  0
    2.8754  -13.8576   25.6957 C   0  0  0  0  0  0  0  0  0  0  0  0
    3.8223  -13.5792   24.6142 C   0  0  0  0  0  0  0  0  0  0  0  0
    4.3246  -14.4534   24.0342 O   0  0  0  0  0  0  0  0  0  0  0  0
    3.9905  -12.0615   24.4667 N   0  0  0  0  0  0  0  0  0  0  0  0
    4.8832  -11.2964   23.6388 C   0  0  0  0  0  0  0  0  0  0  0  0
    4.4321   -9.8518   23.4978 C   0  0  2  0  0  0  0  0  0  0  0  0
    5.3957   -9.0249   22.6705 C   0  0  0  0  0  0  0  0  0  0  0  0
    4.3710   -9.3023   24.7474 F   0  0  0  0  0  0  0  0  0  0  0  0
  1  2  1  0
  2  3  2  0
  3  4  1  0
  4  5  1  0
  5  6  1  0
  5  7  2  0
  7  8  1  0
  8  9  2  0
  8 10  1  0
 10 11  1  0
 11 12  1  0
 12 13  1  6
 12 14  1  0
  7  2  1  0
M  END
>  <inchikey>  (1122) 
GZFAWCDADBSKKY-UHFFFAOYSA-N

>  <tags>  (1122) 
fragmenstein_placed,CpKRS_FrAncestor_bulkdock_iter2

>  <ref_pdb>  (1122) 
x0502c

>  <energy_score>  (1122) 
-10.574068

>  <distance_score>  (1122) 
0.670843

>  <HIPPO Pose ID>  (1122) 
58262

>  <ref_mols>  (1122) 
x0504b

>  <smiles>  (1122) 
Cc1n[nH]c(C)c1C(=O)NCC(C)F

>  <HIPPO Compound ID>  (1122) 
37621

>  <alias>  (1122) 
GZFAWCDADBSKKY-UHFFFAOYSA-N-P49

>  <subsites>  (1122) 


>  <placement_batch>  (1122) 
CpKRS_FrAncestor_bulkdock_iter2

>  <name>  (1122) 
GZFAWCDADBSKKY-UHFFFAOYSA-N-P49

$$$$
DWAGAAKSMSPNTB-UHFFFAOYSA-N-P49
     RDKit          3D

 14 14  0  0  0  0  0  0  0  0999 V2000
    4.2231  -15.9092   26.4935 C   0  0  0  0  0  0  0  0  0  0  0  0
    3.1241  -14.9209   26.3429 C   0  0  0  0  0  0  0  0  0  0  0  0
    1.9613  -15.1183   26.9764 N   0  0  0  0  0  0  0  0  0  0  0  0
    1.2512  -14.0349   26.6809 N   0  0  0  0  0  0  0  0  0  0  0  0
    1.8717  -13.1551   25.8401 C   0  0  0  0  0  0  0  0  0  0  0  0
    1.1947  -11.8844   25.4781 C   0  0  0  0  0  0  0  0  0  0  0  0
    3.1265  -13.7077   25.5810 C   0  0  0  0  0  0  0  0  0  0  0  0
    4.2778  -13.1682   24.8260 C   0  0  0  0  0  0  0  0  0  0  0  0
    5.3499  -13.5215   25.1055 O   0  0  0  0  0  0  0  0  0  0  0  0
    3.8110  -12.1093   23.8206 N   0  0  0  0  0  0  0  0  0  0  0  0
    4.5614  -11.3216   22.8718 C   0  0  0  0  0  0  0  0  0  0  0  0
    4.4344   -9.8152   23.1094 C   0  0  2  0  0  0  0  0  0  0  0  0
    5.1707   -9.1391   22.1907 F   0  0  0  0  0  0  0  0  0  0  0  0
    4.9549   -9.2969   24.7216 Cl  0  0  0  0  0  0  0  0  0  0  0  0
  1  2  1  0
  2  3  2  0
  3  4  1  0
  4  5  1  0
  5  6  1  0
  5  7  2  0
  7  8  1  0
  8  9  2  0
  8 10  1  0
 10 11  1  0
 11 12  1  0
 12 13  1  6
 12 14  1  0
  7  2  1  0
M  END
>  <inchikey>  (1123) 
DWAGAAKSMSPNTB-UHFFFAOYSA-N

>  <tags>  (1123) 
fragmenstein_placed,CpKRS_FrAncestor_bulkdock_iter2

>  <ref_pdb>  (1123) 
x0502c

>  <energy_score>  (1123) 
-4.917361

>  <distance_score>  (1123) 
0.562936

>  <HIPPO Pose ID>  (1123) 
58268

>  <ref_mols>  (1123) 
x0504b

>  <smiles>  (1123) 
Cc1n[nH]c(C)c1C(=O)NCC(F)Cl

>  <HIPPO Compound ID>  (1123) 
37623

>  <alias>  (1123) 
DWAGAAKSMSPNTB-UHFFFAOYSA-N-P49

>  <subsites>  (1123) 


>  <placement_batch>  (1123) 
CpKRS_FrAncestor_bulkdock_iter2

>  <name>  (1123) 
DWAGAAKSMSPNTB-UHFFFAOYSA-N-P49

$$$$
SBNLQOUOYNEOQC-UHFFFAOYSA-N-P49
     RDKit          3D

 14 14  0  0  0  0  0  0  0  0999 V2000
    4.2371  -15.9296   26.5164 C   0  0  0  0  0  0  0  0  0  0  0  0
    3.1323  -14.9469   26.3782 C   0  0  0  0  0  0  0  0  0  0  0  0
    1.9872  -15.1352   27.0454 N   0  0  0  0  0  0  0  0  0  0  0  0
    1.2594  -14.0675   26.7348 N   0  0  0  0  0  0  0  0  0  0  0  0
    1.8595  -13.1982   25.8688 C   0  0  0  0  0  0  0  0  0  0  0  0
    1.1699  -11.9383   25.4944 C   0  0  0  0  0  0  0  0  0  0  0  0
    3.1131  -13.7470   25.5982 C   0  0  0  0  0  0  0  0  0  0  0  0
    4.2461  -13.2075   24.8187 C   0  0  0  0  0  0  0  0  0  0  0  0
    5.3285  -13.5238   25.1025 O   0  0  0  0  0  0  0  0  0  0  0  0
    3.7465  -12.1967   23.7806 N   0  0  0  0  0  0  0  0  0  0  0  0
    4.4765  -11.2855   22.9317 C   0  0  0  0  0  0  0  0  0  0  0  0
    4.5062   -9.8737   23.5144 C   0  0  0  0  0  0  0  0  0  0  0  0
    5.1934   -9.8321   24.6811 F   0  0  0  0  0  0  0  0  0  0  0  0
    5.1306   -9.0239   22.6615 F   0  0  0  0  0  0  0  0  0  0  0  0
  1  2  1  0
  2  3  2  0
  3  4  1  0
  4  5  1  0
  5  6  1  0
  5  7  2  0
  7  8  1  0
  8  9  2  0
  8 10  1  0
 10 11  1  0
 11 12  1  0
 12 13  1  0
 12 14  1  0
  7  2  1  0
M  END
>  <inchikey>  (1124) 
SBNLQOUOYNEOQC-UHFFFAOYSA-N

>  <tags>  (1124) 
fragmenstein_placed,CpKRS_FrAncestor_bulkdock_iter2

>  <ref_pdb>  (1124) 
x0502c

>  <energy_score>  (1124) 
-8.486628

>  <distance_score>  (1124) 
0.470058

>  <HIPPO Pose ID>  (1124) 
58271

>  <ref_mols>  (1124) 
x0504b

>  <smiles>  (1124) 
Cc1n[nH]c(C)c1C(=O)NCC(F)F

>  <HIPPO Compound ID>  (1124) 
37624

>  <alias>  (1124) 
SBNLQOUOYNEOQC-UHFFFAOYSA-N-P49

>  <subsites>  (1124) 


>  <placement_batch>  (1124) 
CpKRS_FrAncestor_bulkdock_iter2

>  <name>  (1124) 
SBNLQOUOYNEOQC-UHFFFAOYSA-N-P49

$$$$
YVYCGHNRWPEDKW-UHFFFAOYSA-N-P47
     RDKit          3D

 13 13  0  0  0  0  0  0  0  0999 V2000
    4.3460    2.4169   44.0373 C   0  0  0  0  0  0  0  0  0  0  0  0
    3.6130    3.2260   45.0496 C   0  0  0  0  0  0  0  0  0  0  0  0
    3.6309    2.8724   46.3406 N   0  0  0  0  0  0  0  0  0  0  0  0
    2.8408    3.7756   46.9384 N   0  0  0  0  0  0  0  0  0  0  0  0
    2.3388    4.7205   46.0854 C   0  0  0  0  0  0  0  0  0  0  0  0
    1.4056    5.7650   46.5644 C   0  0  0  0  0  0  0  0  0  0  0  0
    2.8318    4.3971   44.8295 C   0  0  0  0  0  0  0  0  0  0  0  0
    2.5534    5.0212   43.5351 C   0  0  0  0  0  0  0  0  0  0  0  0
    2.4320    4.3433   42.5992 O   0  0  0  0  0  0  0  0  0  0  0  0
    2.4515    6.5418   43.6790 N   0  0  0  0  0  0  0  0  0  0  0  0
    2.2713    7.5671   42.6818 C   0  0  0  0  0  0  0  0  0  0  0  0
    3.4855    7.6809   41.7800 C   0  0  0  0  0  0  0  0  0  0  0  0
    4.5690    7.9677   42.5541 F   0  0  0  0  0  0  0  0  0  0  0  0
  1  2  1  0
  2  3  2  0
  3  4  1  0
  4  5  1  0
  5  6  1  0
  5  7  2  0
  7  8  1  0
  8  9  2  0
  8 10  1  0
 10 11  1  0
 11 12  1  0
 12 13  1  0
  7  2  1  0
M  END
>  <inchikey>  (1125) 
YVYCGHNRWPEDKW-UHFFFAOYSA-N

>  <tags>  (1125) 
fragmenstein_placed,CpKRS_FrAncestor_bulkdock_iter2

>  <ref_pdb>  (1125) 
x0502c

>  <energy_score>  (1125) 
-10.697141

>  <distance_score>  (1125) 
0.453426

>  <HIPPO Pose ID>  (1125) 
58275

>  <ref_mols>  (1125) 
x0504c

>  <smiles>  (1125) 
Cc1n[nH]c(C)c1C(=O)NCCF

>  <HIPPO Compound ID>  (1125) 
37625

>  <alias>  (1125) 
YVYCGHNRWPEDKW-UHFFFAOYSA-N-P47

>  <subsites>  (1125) 


>  <placement_batch>  (1125) 
CpKRS_FrAncestor_bulkdock_iter2

>  <name>  (1125) 
YVYCGHNRWPEDKW-UHFFFAOYSA-N-P47

$$$$
HIEVWKWWXZWFBJ-YFKPBYRVSA-N-P47
     RDKit          3D

 14 14  0  0  0  0  0  0  0  0999 V2000
    4.3245    2.4149   44.1134 C   0  0  0  0  0  0  0  0  0  0  0  0
    3.5828    3.2739   45.0787 C   0  0  0  0  0  0  0  0  0  0  0  0
    3.5852    2.9803   46.3840 N   0  0  0  0  0  0  0  0  0  0  0  0
    2.7989    3.9181   46.9305 N   0  0  0  0  0  0  0  0  0  0  0  0
    2.3213    4.8348   46.0313 C   0  0  0  0  0  0  0  0  0  0  0  0
    1.4122    5.9200   46.4631 C   0  0  0  0  0  0  0  0  0  0  0  0
    2.8065    4.4378   44.7941 C   0  0  0  0  0  0  0  0  0  0  0  0
    2.5332    4.9688   43.4565 C   0  0  0  0  0  0  0  0  0  0  0  0
    2.4490    4.2124   42.5793 O   0  0  0  0  0  0  0  0  0  0  0  0
    2.4043    6.4932   43.4673 N   0  0  0  0  0  0  0  0  0  0  0  0
    2.2366    7.4315   42.3762 C   0  0  1  0  0  0  0  0  0  0  0  0
    1.7046    8.7780   42.8428 C   0  0  0  0  0  0  0  0  0  0  0  0
    3.5581    7.5846   41.6267 C   0  0  0  0  0  0  0  0  0  0  0  0
    4.5201    7.9827   42.5089 F   0  0  0  0  0  0  0  0  0  0  0  0
  1  2  1  0
  2  3  2  0
  3  4  1  0
  4  5  1  0
  5  6  1  0
  5  7  2  0
  7  8  1  0
  8  9  2  0
  8 10  1  0
 10 11  1  0
 11 12  1  1
 11 13  1  0
 13 14  1  0
  7  2  1  0
M  END
>  <inchikey>  (1126) 
HIEVWKWWXZWFBJ-UHFFFAOYSA-N

>  <tags>  (1126) 
fragmenstein_placed,CpKRS_FrAncestor_bulkdock_iter2

>  <ref_pdb>  (1126) 
x0502c

>  <energy_score>  (1126) 
-8.711268

>  <distance_score>  (1126) 
0.43455

>  <HIPPO Pose ID>  (1126) 
58284

>  <ref_mols>  (1126) 
x0504c

>  <smiles>  (1126) 
Cc1n[nH]c(C)c1C(=O)N[C@@H](C)CF

>  <HIPPO Compound ID>  (1126) 
37622

>  <alias>  (1126) 
HIEVWKWWXZWFBJ-YFKPBYRVSA-N-P47

>  <subsites>  (1126) 


>  <placement_batch>  (1126) 
CpKRS_FrAncestor_bulkdock_iter2

>  <name>  (1126) 
HIEVWKWWXZWFBJ-YFKPBYRVSA-N-P47

$$$$
DRVROMLLOICOGA-UHFFFAOYSA-N-P49
     RDKit          3D

 17 17  0  0  0  0  0  0  0  0999 V2000
    4.2967  -15.5716   26.8638 C   0  0  0  0  0  0  0  0  0  0  0  0
    3.1003  -14.7551   26.5326 C   0  0  0  0  0  0  0  0  0  0  0  0
    1.9981  -14.8404   27.2891 N   0  0  0  0  0  0  0  0  0  0  0  0
    1.1318  -14.0309   26.6818 N   0  0  0  0  0  0  0  0  0  0  0  0
    1.5921  -13.4716   25.5212 C   0  0  0  0  0  0  0  0  0  0  0  0
    0.6814  -12.7184   24.5888 C   0  0  0  0  0  0  0  0  0  0  0  0
   -0.5053  -13.5832   24.1520 C   0  0  0  0  0  0  0  0  0  0  0  0
    0.1927  -11.4130   25.2123 C   0  0  0  0  0  0  0  0  0  0  0  0
    2.9340  -13.8376   25.4515 C   0  0  0  0  0  0  0  0  0  0  0  0
    3.9471  -13.4626   24.4586 C   0  0  0  0  0  0  0  0  0  0  0  0
    4.7325  -14.2440   24.1040 O   0  0  0  0  0  0  0  0  0  0  0  0
    3.7477  -11.9965   24.0500 N   0  0  0  0  0  0  0  0  0  0  0  0
    4.5368  -11.1449   23.1812 C   0  0  0  0  0  0  0  0  0  0  0  0
    4.5664   -9.6718   23.5724 C   0  0  0  0  0  0  0  0  0  0  0  0
    5.4596   -8.9839   22.8264 F   0  0  0  0  0  0  0  0  0  0  0  0
    4.9032   -9.5055   24.8700 F   0  0  0  0  0  0  0  0  0  0  0  0
    3.3582   -9.0825   23.3822 F   0  0  0  0  0  0  0  0  0  0  0  0
  1  2  1  0
  2  3  2  0
  3  4  1  0
  4  5  1  0
  5  6  1  0
  6  7  1  0
  6  8  1  0
  5  9  2  0
  9 10  1  0
 10 11  2  0
 10 12  1  0
 12 13  1  0
 13 14  1  0
 14 15  1  0
 14 16  1  0
 14 17  1  0
  9  2  1  0
M  END
>  <inchikey>  (1127) 
DRVROMLLOICOGA-UHFFFAOYSA-N

>  <tags>  (1127) 
fragmenstein_placed,CpKRS_FrAncestor_bulkdock_iter2

>  <ref_pdb>  (1127) 
x0502c

>  <energy_score>  (1127) 
-12.261483

>  <distance_score>  (1127) 
0.550831

>  <HIPPO Pose ID>  (1127) 
58286

>  <ref_mols>  (1127) 
x0504b

>  <smiles>  (1127) 
Cc1n[nH]c(C(C)C)c1C(=O)NCC(F)(F)F

>  <HIPPO Compound ID>  (1127) 
37626

>  <alias>  (1127) 
DRVROMLLOICOGA-UHFFFAOYSA-N-P49

>  <subsites>  (1127) 


>  <placement_batch>  (1127) 
CpKRS_FrAncestor_bulkdock_iter2

>  <name>  (1127) 
DRVROMLLOICOGA-UHFFFAOYSA-N-P49

$$$$
OFWNATFXMSEHOR-UHFFFAOYSA-N-P44
     RDKit          3D

 18 19  0  0  0  0  0  0  0  0999 V2000
   -9.8575  -14.3939   49.1665 C   0  0  0  0  0  0  0  0  0  0  0  0
   -9.3486  -13.2724   48.3357 C   0  0  0  0  0  0  0  0  0  0  0  0
   -8.1960  -12.6825   48.6908 N   0  0  0  0  0  0  0  0  0  0  0  0
   -8.0150  -11.7405   47.7531 N   0  0  0  0  0  0  0  0  0  0  0  0
   -9.0301  -11.6805   46.8594 C   0  0  0  0  0  0  0  0  0  0  0  0
   -8.9385  -10.5186   45.6273 Cl  0  0  0  0  0  0  0  0  0  0  0  0
   -9.9379  -12.6582   47.1847 C   0  0  0  0  0  0  0  0  0  0  0  0
  -11.2162  -12.8893   46.5194 C   0  0  0  0  0  0  0  0  0  0  0  0
  -11.8905  -11.9752   46.2640 O   0  0  0  0  0  0  0  0  0  0  0  0
  -11.4790  -14.3961   46.3627 N   0  0  0  0  0  0  0  0  0  0  0  0
  -12.5924  -15.0968   45.7693 C   0  0  0  0  0  0  0  0  0  0  0  0
  -12.4449  -15.2290   44.2428 C   0  0  1  0  0  0  0  0  0  0  0  0
  -11.4575  -16.3602   43.9040 C   0  0  0  0  0  0  0  0  0  0  0  0
  -12.2962  -17.6054   43.6171 C   0  0  0  0  0  0  0  0  0  0  0  0
  -13.7554  -17.1720   43.6834 C   0  0  0  0  0  0  0  0  0  0  0  0
  -13.7341  -15.6501   43.4828 C   0  0  0  0  0  0  0  0  0  0  0  0
  -15.0271  -15.0098   43.9995 C   0  0  0  0  0  0  0  0  0  0  0  0
  -13.6043  -15.3083   41.9817 C   0  0  0  0  0  0  0  0  0  0  0  0
  1  2  1  0
  2  3  2  0
  3  4  1  0
  4  5  1  0
  5  6  1  0
  5  7  2  0
  7  8  1  0
  8  9  2  0
  8 10  1  0
 10 11  1  0
 12 11  1  1
 12 13  1  0
 13 14  1  0
 14 15  1  0
 15 16  1  0
 16 17  1  0
 16 18  1  0
  7  2  1  0
 16 12  1  0
M  END
>  <inchikey>  (1128) 
OFWNATFXMSEHOR-UHFFFAOYSA-N

>  <tags>  (1128) 
fragmenstein_placed,CpKRS_FrAncestor_bulkdock_iter2

>  <ref_pdb>  (1128) 
x0502c

>  <energy_score>  (1128) 
-39.602247

>  <distance_score>  (1128) 
0.311443

>  <HIPPO Pose ID>  (1128) 
58289

>  <ref_mols>  (1128) 
x0502b

>  <smiles>  (1128) 
Cc1n[nH]c(Cl)c1C(=O)NCC1CCCC1(C)C

>  <HIPPO Compound ID>  (1128) 
37627

>  <alias>  (1128) 
OFWNATFXMSEHOR-UHFFFAOYSA-N-P44

>  <subsites>  (1128) 


>  <placement_batch>  (1128) 
CpKRS_FrAncestor_bulkdock_iter2

>  <name>  (1128) 
OFWNATFXMSEHOR-UHFFFAOYSA-N-P44

$$$$
GKUAPLUJNHFYNL-UHFFFAOYSA-N-P46
     RDKit          3D

 17 18  0  0  0  0  0  0  0  0999 V2000
    4.3861  -15.7324   27.2177 C   0  0  0  0  0  0  0  0  0  0  0  0
    3.3051  -14.7599   26.9274 C   0  0  0  0  0  0  0  0  0  0  0  0
    2.1846  -14.7726   27.6712 N   0  0  0  0  0  0  0  0  0  0  0  0
    1.4471  -13.8002   27.1291 N   0  0  0  0  0  0  0  0  0  0  0  0
    2.0065  -13.2475   26.0287 C   0  0  0  0  0  0  0  0  0  0  0  0
    1.0657  -12.1185   25.1799 Cl  0  0  0  0  0  0  0  0  0  0  0  0
    3.2784  -13.7551   25.9032 C   0  0  0  0  0  0  0  0  0  0  0  0
    4.3743  -13.3839   24.9946 C   0  0  0  0  0  0  0  0  0  0  0  0
    5.4467  -13.7836   25.2099 O   0  0  0  0  0  0  0  0  0  0  0  0
    3.8739  -12.4008   23.9242 N   0  0  0  0  0  0  0  0  0  0  0  0
    4.5664  -11.7773   22.8379 C   0  0  0  0  0  0  0  0  0  0  0  0
    4.2793  -10.2848   22.7692 C   0  0  2  0  0  0  0  0  0  0  0  0
    5.0360   -9.6312   21.6123 C   0  0  0  0  0  0  0  0  0  0  0  0
    5.2421   -8.2099   22.0826 C   0  0  0  0  0  0  0  0  0  0  0  0
    5.6521   -8.4063   23.5297 C   0  0  0  0  0  0  0  0  0  0  0  0
    4.7082   -9.5002   24.0328 C   0  0  1  0  0  0  0  0  0  0  0  0
    3.4995   -8.8873   24.7383 C   0  0  0  0  0  0  0  0  0  0  0  0
  1  2  1  0
  2  3  2  0
  3  4  1  0
  4  5  1  0
  5  6  1  0
  5  7  2  0
  7  8  1  0
  8  9  2  0
  8 10  1  0
 10 11  1  0
 12 11  1  1
 12 13  1  0
 13 14  1  0
 14 15  1  0
 15 16  1  0
 16 17  1  6
  7  2  1  0
 16 12  1  0
M  END
>  <inchikey>  (1129) 
GKUAPLUJNHFYNL-UHFFFAOYSA-N

>  <tags>  (1129) 
fragmenstein_placed,CpKRS_FrAncestor_bulkdock_iter2

>  <ref_pdb>  (1129) 
x0502c

>  <energy_score>  (1129) 
-22.06648

>  <distance_score>  (1129) 
0.390909

>  <HIPPO Pose ID>  (1129) 
58293

>  <ref_mols>  (1129) 
x0502c

>  <smiles>  (1129) 
Cc1n[nH]c(Cl)c1C(=O)NCC1CCCC1C

>  <HIPPO Compound ID>  (1129) 
37628

>  <alias>  (1129) 
GKUAPLUJNHFYNL-UHFFFAOYSA-N-P46

>  <subsites>  (1129) 


>  <placement_batch>  (1129) 
CpKRS_FrAncestor_bulkdock_iter2

>  <name>  (1129) 
GKUAPLUJNHFYNL-UHFFFAOYSA-N-P46

$$$$
ZTUDRBDHXQRZIB-UHFFFAOYSA-N-P45
     RDKit          3D

 16 17  0  0  0  0  0  0  0  0999 V2000
    4.5925  -15.7461   27.3054 C   0  0  0  0  0  0  0  0  0  0  0  0
    3.4485  -14.8534   27.0153 C   0  0  0  0  0  0  0  0  0  0  0  0
    2.3548  -14.9454   27.7897 N   0  0  0  0  0  0  0  0  0  0  0  0
    1.5351  -14.0362   27.2699 N   0  0  0  0  0  0  0  0  0  0  0  0
    2.0382  -13.4005   26.1871 C   0  0  0  0  0  0  0  0  0  0  0  0
    1.0328  -12.2511   25.4457 Cl  0  0  0  0  0  0  0  0  0  0  0  0
    3.3218  -13.8553   25.9893 C   0  0  0  0  0  0  0  0  0  0  0  0
    4.3554  -13.4264   25.0319 C   0  0  0  0  0  0  0  0  0  0  0  0
    5.4552  -13.7675   25.2046 O   0  0  0  0  0  0  0  0  0  0  0  0
    3.7580  -12.4912   23.9685 N   0  0  0  0  0  0  0  0  0  0  0  0
    4.3701  -11.8537   22.8372 C   0  0  0  0  0  0  0  0  0  0  0  0
    4.2811  -10.3353   22.9373 C   0  0  0  0  0  0  0  0  0  0  0  0
    4.9796   -9.6100   21.7913 C   0  0  0  0  0  0  0  0  0  0  0  0
    5.0883   -8.1931   22.3226 C   0  0  0  0  0  0  0  0  0  0  0  0
    5.4820   -8.3733   23.7809 C   0  0  0  0  0  0  0  0  0  0  0  0
    4.9651   -9.7553   24.1808 C   0  0  0  0  0  0  0  0  0  0  0  0
  1  2  1  0
  2  3  2  0
  3  4  1  0
  4  5  1  0
  5  6  1  0
  5  7  2  0
  7  8  1  0
  8  9  2  0
  8 10  1  0
 10 11  1  0
 11 12  1  0
 12 13  1  0
 13 14  1  0
 14 15  1  0
 15 16  1  0
  7  2  1  0
 16 12  1  0
M  END
>  <inchikey>  (1130) 
ZTUDRBDHXQRZIB-UHFFFAOYSA-N

>  <tags>  (1130) 
fragmenstein_placed,CpKRS_FrAncestor_bulkdock_iter2

>  <ref_pdb>  (1130) 
x0502c

>  <energy_score>  (1130) 
-6.418627

>  <distance_score>  (1130) 
0.280444

>  <HIPPO Pose ID>  (1130) 
58294

>  <ref_mols>  (1130) 
x0502a

>  <smiles>  (1130) 
Cc1n[nH]c(Cl)c1C(=O)NCC1CCCC1

>  <HIPPO Compound ID>  (1130) 
37629

>  <alias>  (1130) 
ZTUDRBDHXQRZIB-UHFFFAOYSA-N-P45

>  <subsites>  (1130) 


>  <placement_batch>  (1130) 
CpKRS_FrAncestor_bulkdock_iter2

>  <name>  (1130) 
ZTUDRBDHXQRZIB-UHFFFAOYSA-N-P45

$$$$
XAMVRMVBPWJRAM-ZETCQYMHSA-N-P44
     RDKit          3D

 17 18  0  0  0  0  0  0  0  0999 V2000
   -9.8088  -14.3909   49.2115 C   0  0  0  0  0  0  0  0  0  0  0  0
   -9.3141  -13.2883   48.3469 C   0  0  0  0  0  0  0  0  0  0  0  0
   -8.2228  -12.6109   48.7392 N   0  0  0  0  0  0  0  0  0  0  0  0
   -8.0398  -11.7065   47.7660 N   0  0  0  0  0  0  0  0  0  0  0  0
   -8.9993  -11.7522   46.8124 C   0  0  0  0  0  0  0  0  0  0  0  0
   -8.9012  -10.6396   45.5353 Cl  0  0  0  0  0  0  0  0  0  0  0  0
   -9.8606  -12.7759   47.1257 C   0  0  0  0  0  0  0  0  0  0  0  0
  -11.0682  -13.1279   46.3817 C   0  0  0  0  0  0  0  0  0  0  0  0
  -11.7390  -12.2727   45.9624 O   0  0  0  0  0  0  0  0  0  0  0  0
  -11.2665  -14.6552   46.3571 N   0  0  0  0  0  0  0  0  0  0  0  0
  -12.3892  -15.4553   45.8906 C   0  0  1  0  0  0  0  0  0  0  0  0
  -13.6484  -15.0137   46.6358 C   0  0  0  0  0  0  0  0  0  0  0  0
  -12.5025  -15.3571   44.3467 C   0  0  0  0  0  0  0  0  0  0  0  0
  -11.5460  -16.3484   43.6691 C   0  0  0  0  0  0  0  0  0  0  0  0
  -12.3324  -17.6515   43.5271 C   0  0  0  0  0  0  0  0  0  0  0  0
  -13.7992  -17.2962   43.7382 C   0  0  0  0  0  0  0  0  0  0  0  0
  -13.8414  -15.7776   43.7350 C   0  0  0  0  0  0  0  0  0  0  0  0
  1  2  1  0
  2  3  2  0
  3  4  1  0
  4  5  1  0
  5  6  1  0
  5  7  2  0
  7  8  1  0
  8  9  2  0
  8 10  1  0
 10 11  1  0
 11 12  1  1
 11 13  1  0
 13 14  1  0
 14 15  1  0
 15 16  1  0
 16 17  1  0
  7  2  1  0
 17 13  1  0
M  END
>  <inchikey>  (1131) 
XAMVRMVBPWJRAM-UHFFFAOYSA-N

>  <tags>  (1131) 
fragmenstein_placed,CpKRS_FrAncestor_bulkdock_iter2

>  <ref_pdb>  (1131) 
x0502c

>  <energy_score>  (1131) 
-4.449924

>  <distance_score>  (1131) 
0.298164

>  <HIPPO Pose ID>  (1131) 
58301

>  <ref_mols>  (1131) 
x0502b

>  <smiles>  (1131) 
Cc1n[nH]c(Cl)c1C(=O)N[C@@H](C)C1CCCC1

>  <HIPPO Compound ID>  (1131) 
37630

>  <alias>  (1131) 
XAMVRMVBPWJRAM-ZETCQYMHSA-N-P44

>  <subsites>  (1131) 


>  <placement_batch>  (1131) 
CpKRS_FrAncestor_bulkdock_iter2

>  <name>  (1131) 
XAMVRMVBPWJRAM-ZETCQYMHSA-N-P44

$$$$
SDQLSEUASWRYLN-UHFFFAOYSA-N-P63
     RDKit          3D

 17 18  0  0  0  0  0  0  0  0999 V2000
    5.9490   -7.2075   24.1086 C   0  0  0  0  0  0  0  0  0  0  0  0
    5.2683   -8.4958   23.8444 C   0  0  0  0  0  0  0  0  0  0  0  0
    4.5192   -9.0529   24.7950 N   0  0  0  0  0  0  0  0  0  0  0  0
    4.2930  -10.2854   24.3326 N   0  0  0  0  0  0  0  0  0  0  0  0
    4.7317  -10.5045   23.0624 C   0  0  0  0  0  0  0  0  0  0  0  0
    4.6457  -11.8453   22.4116 C   0  0  0  0  0  0  0  0  0  0  0  0
    4.0512  -12.7349   23.3583 N   0  0  0  0  0  0  0  0  0  0  0  0
    4.6620  -13.4561   24.5724 C   0  0  0  0  0  0  0  0  0  0  0  0
    5.7627  -13.5004   24.9481 O   0  0  0  0  0  0  0  0  0  0  0  0
    3.5849  -14.0714   25.3523 C   0  0  0  0  0  0  0  0  0  0  0  0
    2.2587  -13.6744   25.4778 C   0  0  0  0  0  0  0  0  0  0  0  0
    1.5480  -14.4480   26.4354 C   0  0  0  0  0  0  0  0  0  0  0  0
    2.3652  -15.3913   26.9932 C   0  0  0  0  0  0  0  0  0  0  0  0
    1.9161  -16.5197   28.1879 Cl  0  0  0  0  0  0  0  0  0  0  0  0
    3.9480  -15.3675   26.4167 S   0  0  0  0  0  0  0  0  0  0  0  0
    5.2593   -9.2916   22.6675 C   0  0  0  0  0  0  0  0  0  0  0  0
    5.7705   -8.9520   21.3373 C   0  0  0  0  0  0  0  0  0  0  0  0
  1  2  1  0
  2  3  2  0
  3  4  1  0
  4  5  1  0
  5  6  1  0
  6  7  1  0
  7  8  1  0
  8  9  2  0
  8 10  1  0
 10 11  2  0
 11 12  1  0
 12 13  2  0
 13 14  1  0
 13 15  1  0
  5 16  2  0
 16 17  1  0
 16  2  1  0
 15 10  1  0
M  END
>  <inchikey>  (1132) 
SDQLSEUASWRYLN-UHFFFAOYSA-N

>  <tags>  (1132) 
fragmenstein_placed,CpKRS_FrAncestor_bulkdock_iter2

>  <ref_pdb>  (1132) 
x0502c

>  <energy_score>  (1132) 
-11.012671

>  <distance_score>  (1132) 
0.609107

>  <HIPPO Pose ID>  (1132) 
58303

>  <ref_mols>  (1132) 
x0787a

>  <smiles>  (1132) 
Cc1n[nH]c(CNC(=O)c2ccc(Cl)s2)c1C

>  <HIPPO Compound ID>  (1132) 
37631

>  <alias>  (1132) 
SDQLSEUASWRYLN-UHFFFAOYSA-N-P63

>  <subsites>  (1132) 


>  <placement_batch>  (1132) 
CpKRS_FrAncestor_bulkdock_iter2

>  <name>  (1132) 
SDQLSEUASWRYLN-UHFFFAOYSA-N-P63

$$$$
UJVGZLKHZZOUEJ-UHFFFAOYSA-N-P64
     RDKit          3D

 17 18  0  0  0  0  0  0  0  0999 V2000
    5.8324   -7.0978   23.8864 C   0  0  0  0  0  0  0  0  0  0  0  0
    5.4288   -8.1966   22.9778 C   0  0  0  0  0  0  0  0  0  0  0  0
    4.8788   -8.0301   21.7730 N   0  0  0  0  0  0  0  0  0  0  0  0
    4.6992   -9.2954   21.3298 N   0  0  0  0  0  0  0  0  0  0  0  0
    5.0165  -10.2583   22.2466 C   0  0  0  0  0  0  0  0  0  0  0  0
    4.8593  -11.7125   22.0183 C   0  0  0  0  0  0  0  0  0  0  0  0
    4.2339  -12.3539   23.1395 N   0  0  0  0  0  0  0  0  0  0  0  0
    4.6537  -13.6022   23.9411 C   0  0  0  0  0  0  0  0  0  0  0  0
    5.5303  -14.3492   23.7694 O   0  0  0  0  0  0  0  0  0  0  0  0
    3.6985  -13.8672   25.0394 C   0  0  0  0  0  0  0  0  0  0  0  0
    2.3942  -13.4462   25.2472 C   0  0  0  0  0  0  0  0  0  0  0  0
    1.8016  -14.0405   26.4007 C   0  0  0  0  0  0  0  0  0  0  0  0
    0.1742  -13.7670   26.8434 Cl  0  0  0  0  0  0  0  0  0  0  0  0
    2.6682  -14.8668   27.0709 C   0  0  0  0  0  0  0  0  0  0  0  0
    4.1841  -14.9546   26.2938 S   0  0  0  0  0  0  0  0  0  0  0  0
    5.5530   -9.5519   23.2900 C   0  0  0  0  0  0  0  0  0  0  0  0
    6.1259  -10.0258   24.5252 C   0  0  0  0  0  0  0  0  0  0  0  0
  1  2  1  0
  2  3  2  0
  3  4  1  0
  4  5  1  0
  5  6  1  0
  6  7  1  0
  7  8  1  0
  8  9  2  0
  8 10  1  0
 10 11  2  0
 11 12  1  0
 12 13  1  0
 12 14  2  0
 14 15  1  0
  5 16  2  0
 16 17  1  0
 16  2  1  0
 15 10  1  0
M  END
>  <inchikey>  (1133) 
UJVGZLKHZZOUEJ-UHFFFAOYSA-N

>  <tags>  (1133) 
fragmenstein_placed,CpKRS_FrAncestor_bulkdock_iter2

>  <ref_pdb>  (1133) 
x0502c

>  <energy_score>  (1133) 
-7.639814

>  <distance_score>  (1133) 
0.667181

>  <HIPPO Pose ID>  (1133) 
58306

>  <ref_mols>  (1133) 
x0787b

>  <smiles>  (1133) 
Cc1n[nH]c(CNC(=O)c2cc(Cl)cs2)c1C

>  <HIPPO Compound ID>  (1133) 
37632

>  <alias>  (1133) 
UJVGZLKHZZOUEJ-UHFFFAOYSA-N-P64

>  <subsites>  (1133) 


>  <placement_batch>  (1133) 
CpKRS_FrAncestor_bulkdock_iter2

>  <name>  (1133) 
UJVGZLKHZZOUEJ-UHFFFAOYSA-N-P64

$$$$
NXUDZQLPSZCRBU-UHFFFAOYSA-N-P13
     RDKit          3D

 15 16  0  0  0  0  0  0  0  0999 V2000
    1.6729  -15.3323   28.4079 C   0  0  0  0  0  0  0  0  0  0  0  0
    2.0639  -14.6252   27.1638 C   0  0  0  0  0  0  0  0  0  0  0  0
    1.2141  -13.7723   26.5742 N   0  0  0  0  0  0  0  0  0  0  0  0
    1.9238  -13.2923   25.5373 N   0  0  0  0  0  0  0  0  0  0  0  0
    3.2169  -13.7301   25.4886 C   0  0  0  0  0  0  0  0  0  0  0  0
    4.2286  -13.2698   24.5544 C   0  0  0  0  0  0  0  0  0  0  0  0
    4.9634  -14.0243   24.0596 O   0  0  0  0  0  0  0  0  0  0  0  0
    4.1452  -11.7372   24.4391 N   0  0  0  0  0  0  0  0  0  0  0  0
    5.0043  -10.8055   23.7680 C   0  0  0  0  0  0  0  0  0  0  0  0
    4.6289   -9.3497   24.0050 C   0  0  0  0  0  0  0  0  0  0  0  0
    5.4273   -8.6231   22.9349 C   0  0  0  0  0  0  0  0  0  0  0  0
    5.4491   -9.5730   21.7395 C   0  0  0  0  0  0  0  0  0  0  0  0
    4.9698  -10.9306   22.2515 C   0  0  0  0  0  0  0  0  0  0  0  0
    3.3126  -14.6893   26.4853 C   0  0  0  0  0  0  0  0  0  0  0  0
    4.4894  -15.5349   26.8145 C   0  0  0  0  0  0  0  0  0  0  0  0
  1  2  1  0
  2  3  2  0
  3  4  1  0
  4  5  1  0
  5  6  1  0
  6  7  2  0
  6  8  1  0
  8  9  1  0
  9 10  1  0
 10 11  1  0
 11 12  1  0
 12 13  1  0
  5 14  2  0
 14 15  1  0
 14  2  1  0
 13  9  1  0
M  END
>  <inchikey>  (1134) 
NXUDZQLPSZCRBU-UHFFFAOYSA-N

>  <tags>  (1134) 
fragmenstein_placed,CpKRS_FrAncestor_bulkdock_iter2

>  <ref_pdb>  (1134) 
x0502c

>  <energy_score>  (1134) 
-3.117602

>  <distance_score>  (1134) 
0.349996

>  <HIPPO Pose ID>  (1134) 
58317

>  <ref_mols>  (1134) 
x0421c

>  <smiles>  (1134) 
Cc1n[nH]c(C(=O)NC2CCCC2)c1C

>  <HIPPO Compound ID>  (1134) 
37635

>  <alias>  (1134) 
NXUDZQLPSZCRBU-UHFFFAOYSA-N-P13

>  <subsites>  (1134) 


>  <placement_batch>  (1134) 
CpKRS_FrAncestor_bulkdock_iter2

>  <name>  (1134) 
NXUDZQLPSZCRBU-UHFFFAOYSA-N-P13

$$$$
PASIZDCVKQYBTJ-UHFFFAOYSA-N-P11
     RDKit          3D

 17 18  0  0  0  0  0  0  0  0999 V2000
    2.1082  -16.0158   28.2319 C   0  0  0  0  0  0  0  0  0  0  0  0
    2.3476  -15.0373   27.1469 C   0  0  0  0  0  0  0  0  0  0  0  0
    1.3363  -14.3115   26.6440 N   0  0  0  0  0  0  0  0  0  0  0  0
    1.9318  -13.6488   25.6365 N   0  0  0  0  0  0  0  0  0  0  0  0
    3.2991  -13.7317   25.6005 C   0  0  0  0  0  0  0  0  0  0  0  0
    4.1802  -13.0044   24.6909 C   0  0  0  0  0  0  0  0  0  0  0  0
    5.2341  -13.4262   24.4310 O   0  0  0  0  0  0  0  0  0  0  0  0
    3.4574  -11.7368   24.1849 N   0  0  0  0  0  0  0  0  0  0  0  0
    3.8418  -10.7809   23.1874 C   0  0  2  0  0  0  0  0  0  0  0  0
    4.7471  -11.2487   22.0565 C   0  0  0  0  0  0  0  0  0  0  0  0
    5.2437   -9.9411   21.4229 C   0  0  0  0  0  0  0  0  0  0  0  0
    4.7928   -8.8071   22.3512 C   0  0  0  0  0  0  0  0  0  0  0  0
    4.5350   -9.5046   23.6981 C   0  0  0  0  0  0  0  0  0  0  0  0
    5.8814   -9.7445   24.3968 C   0  0  0  0  0  0  0  0  0  0  0  0
    3.6126   -8.7149   24.6164 C   0  0  0  0  0  0  0  0  0  0  0  0
    3.5825  -14.7220   26.5220 C   0  0  0  0  0  0  0  0  0  0  0  0
    5.0745  -15.4391   26.8997 Cl  0  0  0  0  0  0  0  0  0  0  0  0
  1  2  1  0
  2  3  2  0
  3  4  1  0
  4  5  1  0
  5  6  1  0
  6  7  2  0
  6  8  1  0
  9  8  1  1
  9 10  1  0
 10 11  1  0
 11 12  1  0
 12 13  1  0
 13 14  1  0
 13 15  1  0
  5 16  2  0
 16 17  1  0
 16  2  1  0
 13  9  1  0
M  END
>  <inchikey>  (1135) 
PASIZDCVKQYBTJ-UHFFFAOYSA-N

>  <tags>  (1135) 
fragmenstein_placed,CpKRS_FrAncestor_bulkdock_iter2

>  <ref_pdb>  (1135) 
x0502c

>  <energy_score>  (1135) 
-3.157586

>  <distance_score>  (1135) 
0.413086

>  <HIPPO Pose ID>  (1135) 
58319

>  <ref_mols>  (1135) 
x0421a

>  <smiles>  (1135) 
Cc1n[nH]c(C(=O)NC2CCCC2(C)C)c1Cl

>  <HIPPO Compound ID>  (1135) 
37636

>  <alias>  (1135) 
PASIZDCVKQYBTJ-UHFFFAOYSA-N-P11

>  <subsites>  (1135) 


>  <placement_batch>  (1135) 
CpKRS_FrAncestor_bulkdock_iter2

>  <name>  (1135) 
PASIZDCVKQYBTJ-UHFFFAOYSA-N-P11

$$$$
VAGBIYZXJDAHPF-UHFFFAOYSA-N-P13
     RDKit          3D

 17 18  0  0  0  0  0  0  0  0999 V2000
    1.5100  -15.3364   28.6770 C   0  0  0  0  0  0  0  0  0  0  0  0
    1.7697  -14.7665   27.3328 C   0  0  0  0  0  0  0  0  0  0  0  0
    0.8345  -14.0260   26.7102 N   0  0  0  0  0  0  0  0  0  0  0  0
    1.4497  -13.6437   25.5721 N   0  0  0  0  0  0  0  0  0  0  0  0
    2.7457  -14.0531   25.4799 C   0  0  0  0  0  0  0  0  0  0  0  0
    3.6827  -13.6470   24.4719 C   0  0  0  0  0  0  0  0  0  0  0  0
    4.2573  -14.4184   23.8213 O   0  0  0  0  0  0  0  0  0  0  0  0
    3.8022  -12.1204   24.5410 N   0  0  0  0  0  0  0  0  0  0  0  0
    4.7116  -11.2348   23.8993 C   0  0  1  0  0  0  0  0  0  0  0  0
    5.0072  -11.4815   22.4323 C   0  0  0  0  0  0  0  0  0  0  0  0
    5.6317  -10.1639   21.9641 C   0  0  0  0  0  0  0  0  0  0  0  0
    5.3764   -9.1254   23.0761 C   0  0  0  0  0  0  0  0  0  0  0  0
    4.9959   -7.8188   22.4244 C   0  0  0  0  0  0  0  0  0  0  0  0
    6.5655   -8.8401   24.0032 C   0  0  0  0  0  0  0  0  0  0  0  0
    4.2707   -9.7738   23.9141 C   0  0  0  0  0  0  0  0  0  0  0  0
    2.9617  -14.8533   26.5754 C   0  0  0  0  0  0  0  0  0  0  0  0
    4.3874  -15.6628   27.0056 Cl  0  0  0  0  0  0  0  0  0  0  0  0
  1  2  1  0
  2  3  2  0
  3  4  1  0
  4  5  1  0
  5  6  1  0
  6  7  2  0
  6  8  1  0
  9  8  1  6
  9 10  1  0
 10 11  1  0
 11 12  1  0
 12 13  1  0
 12 14  1  0
 12 15  1  0
  5 16  2  0
 16 17  1  0
 16  2  1  0
 15  9  1  0
M  END
>  <inchikey>  (1136) 
VAGBIYZXJDAHPF-UHFFFAOYSA-N

>  <tags>  (1136) 
fragmenstein_placed,CpKRS_FrAncestor_bulkdock_iter2

>  <ref_pdb>  (1136) 
x0502c

>  <energy_score>  (1136) 
-6.060628

>  <distance_score>  (1136) 
0.800078

>  <HIPPO Pose ID>  (1136) 
58325

>  <ref_mols>  (1136) 
x0421c

>  <smiles>  (1136) 
Cc1n[nH]c(C(=O)NC2CCC(C)(C)C2)c1Cl

>  <HIPPO Compound ID>  (1136) 
37637

>  <alias>  (1136) 
VAGBIYZXJDAHPF-UHFFFAOYSA-N-P13

>  <subsites>  (1136) 


>  <placement_batch>  (1136) 
CpKRS_FrAncestor_bulkdock_iter2

>  <name>  (1136) 
VAGBIYZXJDAHPF-UHFFFAOYSA-N-P13

$$$$
KZFBPQMTPPLLAK-UHFFFAOYSA-N-P14
     RDKit          3D

 17 18  0  0  0  0  0  0  0  0999 V2000
    1.5168  -15.0305   29.0760 C   0  0  0  0  0  0  0  0  0  0  0  0
    1.8837  -14.5455   27.7256 C   0  0  0  0  0  0  0  0  0  0  0  0
    1.0307  -13.7995   27.0118 N   0  0  0  0  0  0  0  0  0  0  0  0
    1.7556  -13.4584   25.9314 N   0  0  0  0  0  0  0  0  0  0  0  0
    3.0640  -13.8486   25.9848 C   0  0  0  0  0  0  0  0  0  0  0  0
    4.1671  -13.3936   25.1451 C   0  0  0  0  0  0  0  0  0  0  0  0
    5.1567  -14.0056   25.1221 O   0  0  0  0  0  0  0  0  0  0  0  0
    3.8101  -12.0512   24.4851 N   0  0  0  0  0  0  0  0  0  0  0  0
    4.6120  -11.1469   23.7482 C   0  0  1  0  0  0  0  0  0  0  0  0
    4.9037  -11.4593   22.2973 C   0  0  0  0  0  0  0  0  0  0  0  0
    5.4436  -10.1234   21.7670 C   0  0  0  0  0  0  0  0  0  0  0  0
    5.1438   -9.0545   22.8426 C   0  0  0  0  0  0  0  0  0  0  0  0
    6.2994   -8.6821   23.7851 C   0  0  0  0  0  0  0  0  0  0  0  0
    4.7318   -7.7855   22.1411 C   0  0  0  0  0  0  0  0  0  0  0  0
    4.0661   -9.7248   23.6934 C   0  0  0  0  0  0  0  0  0  0  0  0
    3.1180  -14.7367   27.0521 C   0  0  0  0  0  0  0  0  0  0  0  0
    4.2573  -15.5992   27.4616 C   0  0  0  0  0  0  0  0  0  0  0  0
  1  2  1  0
  2  3  2  0
  3  4  1  0
  4  5  1  0
  5  6  1  0
  6  7  2  0
  6  8  1  0
  9  8  1  6
  9 10  1  0
 10 11  1  0
 11 12  1  0
 12 13  1  0
 12 14  1  0
 12 15  1  0
  5 16  2  0
 16 17  1  0
 16  2  1  0
 15  9  1  0
M  END
>  <inchikey>  (1137) 
KZFBPQMTPPLLAK-UHFFFAOYSA-N

>  <tags>  (1137) 
fragmenstein_placed,CpKRS_FrAncestor_bulkdock_iter2

>  <ref_pdb>  (1137) 
x0502c

>  <energy_score>  (1137) 
-0.013205

>  <distance_score>  (1137) 
0.632889

>  <HIPPO Pose ID>  (1137) 
58330

>  <ref_mols>  (1137) 
x0421d

>  <smiles>  (1137) 
Cc1n[nH]c(C(=O)NC2CCC(C)(C)C2)c1C

>  <HIPPO Compound ID>  (1137) 
37638

>  <alias>  (1137) 
KZFBPQMTPPLLAK-UHFFFAOYSA-N-P14

>  <subsites>  (1137) 


>  <placement_batch>  (1137) 
CpKRS_FrAncestor_bulkdock_iter2

>  <name>  (1137) 
KZFBPQMTPPLLAK-UHFFFAOYSA-N-P14

$$$$
AHVUFYSTNGVNEA-UHFFFAOYSA-N-P44
     RDKit          3D

 16 17  0  0  0  0  0  0  0  0999 V2000
   -7.2547  -12.5631   49.7165 C   0  0  0  0  0  0  0  0  0  0  0  0
   -8.1486  -12.3752   48.5464 C   0  0  0  0  0  0  0  0  0  0  0  0
   -7.9815  -11.3208   47.7382 N   0  0  0  0  0  0  0  0  0  0  0  0
   -8.9192  -11.4965   46.7917 N   0  0  0  0  0  0  0  0  0  0  0  0
   -9.7252  -12.5951   46.9687 C   0  0  0  0  0  0  0  0  0  0  0  0
  -10.8007  -12.8547   46.0269 C   0  0  0  0  0  0  0  0  0  0  0  0
  -11.0785  -12.0188   45.2654 O   0  0  0  0  0  0  0  0  0  0  0  0
  -11.4169  -14.2423   46.2493 N   0  0  0  0  0  0  0  0  0  0  0  0
  -12.5697  -14.8632   45.6457 C   0  0  0  0  0  0  0  0  0  0  0  0
  -12.3469  -15.2007   44.1641 C   0  0  0  0  0  0  0  0  0  0  0  0
  -11.4560  -16.4365   43.9800 C   0  0  0  0  0  0  0  0  0  0  0  0
  -12.3825  -17.6142   43.6772 C   0  0  0  0  0  0  0  0  0  0  0  0
  -13.8002  -17.0750   43.7738 C   0  0  0  0  0  0  0  0  0  0  0  0
  -13.6510  -15.5949   43.4671 C   0  0  0  0  0  0  0  0  0  0  0  0
   -9.2328  -13.1774   48.1175 C   0  0  0  0  0  0  0  0  0  0  0  0
   -9.8161  -14.7022   49.0414 Br  0  0  0  0  0  0  0  0  0  0  0  0
  1  2  1  0
  2  3  2  0
  3  4  1  0
  4  5  1  0
  5  6  1  0
  6  7  2  0
  6  8  1  0
  8  9  1  0
  9 10  1  0
 10 11  1  0
 11 12  1  0
 12 13  1  0
 13 14  1  0
  5 15  2  0
 15 16  1  0
 15  2  1  0
 14 10  1  0
M  END
>  <inchikey>  (1138) 
AHVUFYSTNGVNEA-UHFFFAOYSA-N

>  <tags>  (1138) 
fragmenstein_placed,CpKRS_FrAncestor_bulkdock_iter2

>  <ref_pdb>  (1138) 
x0502c

>  <energy_score>  (1138) 
-18.636159

>  <distance_score>  (1138) 
0.44814

>  <HIPPO Pose ID>  (1138) 
58332

>  <ref_mols>  (1138) 
x0502b

>  <smiles>  (1138) 
Cc1n[nH]c(C(=O)NCC2CCCC2)c1Br

>  <HIPPO Compound ID>  (1138) 
37639

>  <alias>  (1138) 
AHVUFYSTNGVNEA-UHFFFAOYSA-N-P44

>  <subsites>  (1138) 


>  <placement_batch>  (1138) 
CpKRS_FrAncestor_bulkdock_iter2

>  <name>  (1138) 
AHVUFYSTNGVNEA-UHFFFAOYSA-N-P44

$$$$
BASZCXQQOFAJMY-UHFFFAOYSA-N-P44
     RDKit          3D

 16 17  0  0  0  0  0  0  0  0999 V2000
   -7.2762  -12.6276   49.7436 C   0  0  0  0  0  0  0  0  0  0  0  0
   -8.1585  -12.4207   48.5683 C   0  0  0  0  0  0  0  0  0  0  0  0
   -7.9870  -11.3549   47.7760 N   0  0  0  0  0  0  0  0  0  0  0  0
   -8.9161  -11.5240   46.8207 N   0  0  0  0  0  0  0  0  0  0  0  0
   -9.7191  -12.6257   46.9826 C   0  0  0  0  0  0  0  0  0  0  0  0
  -10.7887  -12.8849   46.0355 C   0  0  0  0  0  0  0  0  0  0  0  0
  -11.0531  -12.0537   45.2639 O   0  0  0  0  0  0  0  0  0  0  0  0
  -11.4195  -14.2655   46.2664 N   0  0  0  0  0  0  0  0  0  0  0  0
  -12.5731  -14.8817   45.6595 C   0  0  0  0  0  0  0  0  0  0  0  0
  -12.3527  -15.2078   44.1749 C   0  0  0  0  0  0  0  0  0  0  0  0
  -11.4596  -16.4400   43.9794 C   0  0  0  0  0  0  0  0  0  0  0  0
  -12.3850  -17.6188   43.6769 C   0  0  0  0  0  0  0  0  0  0  0  0
  -13.8036  -17.0820   43.7755 C   0  0  0  0  0  0  0  0  0  0  0  0
  -13.6571  -15.5999   43.4774 C   0  0  0  0  0  0  0  0  0  0  0  0
   -9.2392  -13.2290   48.1284 C   0  0  0  0  0  0  0  0  0  0  0  0
   -9.7833  -14.6281   48.9249 Cl  0  0  0  0  0  0  0  0  0  0  0  0
  1  2  1  0
  2  3  2  0
  3  4  1  0
  4  5  1  0
  5  6  1  0
  6  7  2  0
  6  8  1  0
  8  9  1  0
  9 10  1  0
 10 11  1  0
 11 12  1  0
 12 13  1  0
 13 14  1  0
  5 15  2  0
 15 16  1  0
 15  2  1  0
 14 10  1  0
M  END
>  <inchikey>  (1139) 
BASZCXQQOFAJMY-UHFFFAOYSA-N

>  <tags>  (1139) 
fragmenstein_placed,CpKRS_FrAncestor_bulkdock_iter2

>  <ref_pdb>  (1139) 
x0502c

>  <energy_score>  (1139) 
-3.46135

>  <distance_score>  (1139) 
0.438666

>  <HIPPO Pose ID>  (1139) 
58335

>  <ref_mols>  (1139) 
x0502b

>  <smiles>  (1139) 
Cc1n[nH]c(C(=O)NCC2CCCC2)c1Cl

>  <HIPPO Compound ID>  (1139) 
37640

>  <alias>  (1139) 
BASZCXQQOFAJMY-UHFFFAOYSA-N-P44

>  <subsites>  (1139) 


>  <placement_batch>  (1139) 
CpKRS_FrAncestor_bulkdock_iter2

>  <name>  (1139) 
BASZCXQQOFAJMY-UHFFFAOYSA-N-P44

$$$$
YFZZQYJGQCBIEL-UHFFFAOYSA-N-P46
     RDKit          3D

 16 17  0  0  0  0  0  0  0  0999 V2000
    1.8650  -15.2440   28.8037 C   0  0  0  0  0  0  0  0  0  0  0  0
    2.2442  -14.5329   27.5668 C   0  0  0  0  0  0  0  0  0  0  0  0
    1.4338  -13.6102   27.0395 N   0  0  0  0  0  0  0  0  0  0  0  0
    2.1936  -13.0572   26.0780 N   0  0  0  0  0  0  0  0  0  0  0  0
    3.3985  -13.6758   25.8650 C   0  0  0  0  0  0  0  0  0  0  0  0
    4.4409  -13.2552   24.9283 C   0  0  0  0  0  0  0  0  0  0  0  0
    5.5597  -13.4373   25.1928 O   0  0  0  0  0  0  0  0  0  0  0  0
    3.8052  -12.5577   23.7156 N   0  0  0  0  0  0  0  0  0  0  0  0
    4.4107  -11.8553   22.6215 C   0  0  0  0  0  0  0  0  0  0  0  0
    4.3619  -10.3529   22.8133 C   0  0  0  0  0  0  0  0  0  0  0  0
    5.0615   -9.6004   21.6895 C   0  0  0  0  0  0  0  0  0  0  0  0
    5.1674   -8.2072   22.2681 C   0  0  0  0  0  0  0  0  0  0  0  0
    5.5408   -8.4300   23.7289 C   0  0  0  0  0  0  0  0  0  0  0  0
    5.0728   -9.8444   24.0663 C   0  0  0  0  0  0  0  0  0  0  0  0
    3.4472  -14.6756   26.8277 C   0  0  0  0  0  0  0  0  0  0  0  0
    4.5383  -15.6491   27.0727 C   0  0  0  0  0  0  0  0  0  0  0  0
  1  2  1  0
  2  3  2  0
  3  4  1  0
  4  5  1  0
  5  6  1  0
  6  7  2  0
  6  8  1  0
  8  9  1  0
  9 10  1  0
 10 11  1  0
 11 12  1  0
 12 13  1  0
 13 14  1  0
  5 15  2  0
 15 16  1  0
 15  2  1  0
 14 10  1  0
M  END
>  <inchikey>  (1140) 
YFZZQYJGQCBIEL-UHFFFAOYSA-N

>  <tags>  (1140) 
fragmenstein_placed,CpKRS_FrAncestor_bulkdock_iter2

>  <ref_pdb>  (1140) 
x0502c

>  <energy_score>  (1140) 
-6.210653

>  <distance_score>  (1140) 
0.411822

>  <HIPPO Pose ID>  (1140) 
58339

>  <ref_mols>  (1140) 
x0502c

>  <smiles>  (1140) 
Cc1n[nH]c(C(=O)NCC2CCCC2)c1C

>  <HIPPO Compound ID>  (1140) 
37641

>  <alias>  (1140) 
YFZZQYJGQCBIEL-UHFFFAOYSA-N-P46

>  <subsites>  (1140) 


>  <placement_batch>  (1140) 
CpKRS_FrAncestor_bulkdock_iter2

>  <name>  (1140) 
YFZZQYJGQCBIEL-UHFFFAOYSA-N-P46

$$$$
UDBNNIUJOXCCCQ-UHFFFAOYSA-N-P45
     RDKit          3D

 17 18  0  0  0  0  0  0  0  0999 V2000
    5.9543   -6.7934   24.2899 C   0  0  0  0  0  0  0  0  0  0  0  0
    5.5316   -7.9724   23.4942 C   0  0  0  0  0  0  0  0  0  0  0  0
    6.0621   -8.1985   22.2910 N   0  0  0  0  0  0  0  0  0  0  0  0
    5.6463   -9.4366   21.9834 N   0  0  0  0  0  0  0  0  0  0  0  0
    4.8916  -10.0221   22.9633 C   0  0  0  0  0  0  0  0  0  0  0  0
    4.6496  -11.4421   22.9400 C   0  0  0  0  0  0  0  0  0  0  0  0
    4.7331  -11.9987   21.9217 O   0  0  0  0  0  0  0  0  0  0  0  0
    4.4104  -11.9871   24.3557 N   0  0  0  0  0  0  0  0  0  0  0  0
    4.3178  -13.3396   24.8320 C   0  0  0  0  0  0  0  0  0  0  0  0
    3.0447  -13.7807   25.5455 C   0  0  2  0  0  0  0  0  0  0  0  0
    1.9765  -12.7516   25.8814 C   0  0  0  0  0  0  0  0  0  0  0  0
    1.0494  -13.5302   26.8126 C   0  0  0  0  0  0  0  0  0  0  0  0
    1.9237  -14.5431   27.5535 C   0  0  0  0  0  0  0  0  0  0  0  0
    3.2983  -14.4685   26.8937 C   0  0  1  0  0  0  0  0  0  0  0  0
    4.0218  -15.8027   26.8850 C   0  0  0  0  0  0  0  0  0  0  0  0
    4.6271   -8.9950   23.8340 C   0  0  0  0  0  0  0  0  0  0  0  0
    3.5665   -8.9342   25.1210 Cl  0  0  0  0  0  0  0  0  0  0  0  0
  1  2  1  0
  2  3  2  0
  3  4  1  0
  4  5  1  0
  5  6  1  0
  6  7  2  0
  6  8  1  0
  8  9  1  0
 10  9  1  1
 10 11  1  0
 11 12  1  0
 12 13  1  0
 13 14  1  0
 14 15  1  6
  5 16  2  0
 16 17  1  0
 16  2  1  0
 14 10  1  0
M  END
>  <inchikey>  (1141) 
UDBNNIUJOXCCCQ-UHFFFAOYSA-N

>  <tags>  (1141) 
fragmenstein_placed,CpKRS_FrAncestor_bulkdock_iter2

>  <ref_pdb>  (1141) 
x0502c

>  <energy_score>  (1141) 
-1.938254

>  <distance_score>  (1141) 
0.743892

>  <HIPPO Pose ID>  (1141) 
58340

>  <ref_mols>  (1141) 
x0502a

>  <smiles>  (1141) 
Cc1n[nH]c(C(=O)NCC2CCCC2C)c1Cl

>  <HIPPO Compound ID>  (1141) 
37642

>  <alias>  (1141) 
UDBNNIUJOXCCCQ-UHFFFAOYSA-N-P45

>  <subsites>  (1141) 


>  <placement_batch>  (1141) 
CpKRS_FrAncestor_bulkdock_iter2

>  <name>  (1141) 
UDBNNIUJOXCCCQ-UHFFFAOYSA-N-P45

$$$$
QTALKXCZXASBHX-UHFFFAOYSA-N-P45
     RDKit          3D

 18 19  0  0  0  0  0  0  0  0999 V2000
    5.9258   -7.1325   24.0813 C   0  0  0  0  0  0  0  0  0  0  0  0
    5.5355   -8.4080   23.4377 C   0  0  0  0  0  0  0  0  0  0  0  0
    6.1293   -8.8052   22.3095 N   0  0  0  0  0  0  0  0  0  0  0  0
    5.5991  -10.0185   22.0773 N   0  0  0  0  0  0  0  0  0  0  0  0
    4.7456  -10.4472   23.0557 C   0  0  0  0  0  0  0  0  0  0  0  0
    4.2047  -11.7824   23.0713 C   0  0  0  0  0  0  0  0  0  0  0  0
    3.8554  -12.2544   22.0672 O   0  0  0  0  0  0  0  0  0  0  0  0
    4.2900  -12.3897   24.4818 N   0  0  0  0  0  0  0  0  0  0  0  0
    4.0504  -13.7494   24.9416 C   0  0  0  0  0  0  0  0  0  0  0  0
    3.1811  -13.8346   26.1766 C   0  0  1  0  0  0  0  0  0  0  0  0
    1.7229  -13.4894   25.9497 C   0  0  0  0  0  0  0  0  0  0  0  0
    1.1483  -13.6525   27.3464 C   0  0  0  0  0  0  0  0  0  0  0  0
    2.0723  -14.6099   28.1253 C   0  0  0  0  0  0  0  0  0  0  0  0
    3.1268  -15.0869   27.0984 C   0  0  0  0  0  0  0  0  0  0  0  0
    2.5659  -16.4114   26.6161 C   0  0  0  0  0  0  0  0  0  0  0  0
    4.5080  -15.4544   27.6310 C   0  0  0  0  0  0  0  0  0  0  0  0
    4.5561   -9.3360   23.8370 C   0  0  0  0  0  0  0  0  0  0  0  0
    3.4013   -9.0643   25.0126 Cl  0  0  0  0  0  0  0  0  0  0  0  0
  1  2  1  0
  2  3  2  0
  3  4  1  0
  4  5  1  0
  5  6  1  0
  6  7  2  0
  6  8  1  0
  8  9  1  0
 10  9  1  6
 10 11  1  0
 11 12  1  0
 12 13  1  0
 13 14  1  0
 14 15  1  0
 14 16  1  0
  5 17  2  0
 17 18  1  0
 17  2  1  0
 14 10  1  0
M  END
>  <inchikey>  (1142) 
QTALKXCZXASBHX-UHFFFAOYSA-N

>  <tags>  (1142) 
fragmenstein_placed,CpKRS_FrAncestor_bulkdock_iter2

>  <ref_pdb>  (1142) 
x0502c

>  <energy_score>  (1142) 
-10.319992

>  <distance_score>  (1142) 
0.791344

>  <HIPPO Pose ID>  (1142) 
58343

>  <ref_mols>  (1142) 
x0502a

>  <smiles>  (1142) 
Cc1n[nH]c(C(=O)NCC2CCCC2(C)C)c1Cl

>  <HIPPO Compound ID>  (1142) 
37643

>  <alias>  (1142) 
QTALKXCZXASBHX-UHFFFAOYSA-N-P45

>  <subsites>  (1142) 


>  <placement_batch>  (1142) 
CpKRS_FrAncestor_bulkdock_iter2

>  <name>  (1142) 
QTALKXCZXASBHX-UHFFFAOYSA-N-P45

$$$$
LEDHIMVPOHGSQF-UHFFFAOYSA-N-P44
     RDKit          3D

 17 18  0  0  0  0  0  0  0  0999 V2000
   -7.2549  -12.3848   49.4481 C   0  0  0  0  0  0  0  0  0  0  0  0
   -8.2648  -12.3838   48.3609 C   0  0  0  0  0  0  0  0  0  0  0  0
   -8.2662  -11.4082   47.4442 N   0  0  0  0  0  0  0  0  0  0  0  0
   -9.2689  -11.7556   46.6187 N   0  0  0  0  0  0  0  0  0  0  0  0
   -9.9688  -12.8754   46.9972 C   0  0  0  0  0  0  0  0  0  0  0  0
  -11.1334  -13.3064   46.2385 C   0  0  0  0  0  0  0  0  0  0  0  0
  -11.5361  -12.6126   45.3936 O   0  0  0  0  0  0  0  0  0  0  0  0
  -11.6889  -14.6289   46.7910 N   0  0  0  0  0  0  0  0  0  0  0  0
  -12.9155  -15.3350   46.4854 C   0  0  1  0  0  0  0  0  0  0  0  0
  -14.1265  -14.4339   46.7225 C   0  0  0  0  0  0  0  0  0  0  0  0
  -12.9745  -16.0425   45.1211 C   0  0  0  0  0  0  0  0  0  0  0  0
  -13.2449  -15.2032   43.8777 C   0  0  0  0  0  0  0  0  0  0  0  0
  -13.0346  -16.2109   42.7532 C   0  0  0  0  0  0  0  0  0  0  0  0
  -11.9293  -17.1438   43.2438 C   0  0  0  0  0  0  0  0  0  0  0  0
  -11.7215  -16.8189   44.7213 C   0  0  0  0  0  0  0  0  0  0  0  0
   -9.3149  -13.3108   48.1347 C   0  0  0  0  0  0  0  0  0  0  0  0
   -9.6540  -14.6432   49.1349 Cl  0  0  0  0  0  0  0  0  0  0  0  0
  1  2  1  0
  2  3  2  0
  3  4  1  0
  4  5  1  0
  5  6  1  0
  6  7  2  0
  6  8  1  0
  8  9  1  0
  9 10  1  6
  9 11  1  0
 11 12  1  0
 12 13  1  0
 13 14  1  0
 14 15  1  0
  5 16  2  0
 16 17  1  0
 16  2  1  0
 15 11  1  0
M  END
>  <inchikey>  (1143) 
LEDHIMVPOHGSQF-UHFFFAOYSA-N

>  <tags>  (1143) 
fragmenstein_placed,CpKRS_FrAncestor_bulkdock_iter2

>  <ref_pdb>  (1143) 
x0502c

>  <energy_score>  (1143) 
-8.266648

>  <distance_score>  (1143) 
0.733521

>  <HIPPO Pose ID>  (1143) 
58350

>  <ref_mols>  (1143) 
x0502b

>  <smiles>  (1143) 
Cc1n[nH]c(C(=O)NC(C)C2CCCC2)c1Cl

>  <HIPPO Compound ID>  (1143) 
37645

>  <alias>  (1143) 
LEDHIMVPOHGSQF-UHFFFAOYSA-N-P44

>  <subsites>  (1143) 


>  <placement_batch>  (1143) 
CpKRS_FrAncestor_bulkdock_iter2

>  <name>  (1143) 
LEDHIMVPOHGSQF-UHFFFAOYSA-N-P44

$$$$
VLAZYOJPVKQRNU-UHFFFAOYSA-N-P44
     RDKit          3D

 17 18  0  0  0  0  0  0  0  0999 V2000
   -7.0508  -12.5991   49.5594 C   0  0  0  0  0  0  0  0  0  0  0  0
   -8.1118  -12.4421   48.5311 C   0  0  0  0  0  0  0  0  0  0  0  0
   -8.0714  -11.4055   47.6890 N   0  0  0  0  0  0  0  0  0  0  0  0
   -9.1509  -11.5827   46.9160 N   0  0  0  0  0  0  0  0  0  0  0  0
   -9.9015  -12.6884   47.2226 C   0  0  0  0  0  0  0  0  0  0  0  0
  -11.1293  -12.9552   46.4882 C   0  0  0  0  0  0  0  0  0  0  0  0
  -11.7300  -12.0517   46.0656 O   0  0  0  0  0  0  0  0  0  0  0  0
  -11.4611  -14.4544   46.4967 N   0  0  0  0  0  0  0  0  0  0  0  0
  -12.5678  -15.1791   45.8982 C   0  0  2  0  0  0  0  0  0  0  0  0
  -12.7902  -16.4851   46.6533 C   0  0  0  0  0  0  0  0  0  0  0  0
  -12.3904  -15.2851   44.3640 C   0  0  0  0  0  0  0  0  0  0  0  0
  -13.6908  -15.5696   43.6062 C   0  0  0  0  0  0  0  0  0  0  0  0
  -13.7763  -17.0804   43.4545 C   0  0  0  0  0  0  0  0  0  0  0  0
  -12.3495  -17.5992   43.5580 C   0  0  0  0  0  0  0  0  0  0  0  0
  -11.4647  -16.3999   43.8786 C   0  0  0  0  0  0  0  0  0  0  0  0
   -9.2569  -13.2668   48.3118 C   0  0  0  0  0  0  0  0  0  0  0  0
   -9.6475  -14.4417   49.1331 C   0  0  0  0  0  0  0  0  0  0  0  0
  1  2  1  0
  2  3  2  0
  3  4  1  0
  4  5  1  0
  5  6  1  0
  6  7  2  0
  6  8  1  0
  8  9  1  0
  9 10  1  1
  9 11  1  0
 11 12  1  0
 12 13  1  0
 13 14  1  0
 14 15  1  0
  5 16  2  0
 16 17  1  0
 16  2  1  0
 15 11  1  0
M  END
>  <inchikey>  (1144) 
VLAZYOJPVKQRNU-UHFFFAOYSA-N

>  <tags>  (1144) 
fragmenstein_placed,CpKRS_FrAncestor_bulkdock_iter2

>  <ref_pdb>  (1144) 
x0502c

>  <energy_score>  (1144) 
-11.035411

>  <distance_score>  (1144) 
0.284622

>  <HIPPO Pose ID>  (1144) 
58356

>  <ref_mols>  (1144) 
x0502b

>  <smiles>  (1144) 
Cc1n[nH]c(C(=O)NC(C)C2CCCC2)c1C

>  <HIPPO Compound ID>  (1144) 
37647

>  <alias>  (1144) 
VLAZYOJPVKQRNU-UHFFFAOYSA-N-P44

>  <subsites>  (1144) 


>  <placement_batch>  (1144) 
CpKRS_FrAncestor_bulkdock_iter2

>  <name>  (1144) 
VLAZYOJPVKQRNU-UHFFFAOYSA-N-P44

$$$$
RIEOLFPCUKOBMX-UHFFFAOYSA-N-P44
     RDKit          3D

 18 19  0  0  0  0  0  0  0  0999 V2000
   -7.1201  -12.5709   49.6334 C   0  0  0  0  0  0  0  0  0  0  0  0
   -8.1257  -12.4426   48.5473 C   0  0  0  0  0  0  0  0  0  0  0  0
   -8.0370  -11.4336   47.6769 N   0  0  0  0  0  0  0  0  0  0  0  0
   -9.0608  -11.6470   46.8409 N   0  0  0  0  0  0  0  0  0  0  0  0
   -9.8361  -12.7383   47.1437 C   0  0  0  0  0  0  0  0  0  0  0  0
  -11.0075  -13.0259   46.3255 C   0  0  0  0  0  0  0  0  0  0  0  0
  -11.4659  -12.1615   45.6927 O   0  0  0  0  0  0  0  0  0  0  0  0
  -11.4647  -14.4834   46.5006 N   0  0  0  0  0  0  0  0  0  0  0  0
  -12.6597  -15.1756   45.9999 C   0  0  0  0  0  0  0  0  0  0  0  0
  -13.8858  -14.3478   46.4376 C   0  0  0  0  0  0  0  0  0  0  0  0
  -12.7431  -16.5392   46.7054 C   0  0  0  0  0  0  0  0  0  0  0  0
  -12.5801  -15.2607   44.4382 C   0  0  0  0  0  0  0  0  0  0  0  0
  -13.8401  -15.7099   43.6876 C   0  0  0  0  0  0  0  0  0  0  0  0
  -13.7354  -17.2185   43.5478 C   0  0  0  0  0  0  0  0  0  0  0  0
  -12.2473  -17.5306   43.5495 C   0  0  0  0  0  0  0  0  0  0  0  0
  -11.5224  -16.2355   43.9044 C   0  0  0  0  0  0  0  0  0  0  0  0
   -9.2579  -13.2758   48.2906 C   0  0  0  0  0  0  0  0  0  0  0  0
   -9.6829  -14.4280   49.1270 C   0  0  0  0  0  0  0  0  0  0  0  0
  1  2  1  0
  2  3  2  0
  3  4  1  0
  4  5  1  0
  5  6  1  0
  6  7  2  0
  6  8  1  0
  8  9  1  0
  9 10  1  0
  9 11  1  0
  9 12  1  0
 12 13  1  0
 13 14  1  0
 14 15  1  0
 15 16  1  0
  5 17  2  0
 17 18  1  0
 17  2  1  0
 16 12  1  0
M  END
>  <inchikey>  (1145) 
RIEOLFPCUKOBMX-UHFFFAOYSA-N

>  <tags>  (1145) 
fragmenstein_placed,CpKRS_FrAncestor_bulkdock_iter2

>  <ref_pdb>  (1145) 
x0502c

>  <energy_score>  (1145) 
-15.994318

>  <distance_score>  (1145) 
0.302248

>  <HIPPO Pose ID>  (1145) 
58359

>  <ref_mols>  (1145) 
x0502b

>  <smiles>  (1145) 
Cc1n[nH]c(C(=O)NC(C)(C)C2CCCC2)c1C

>  <HIPPO Compound ID>  (1145) 
37648

>  <alias>  (1145) 
RIEOLFPCUKOBMX-UHFFFAOYSA-N-P44

>  <subsites>  (1145) 


>  <placement_batch>  (1145) 
CpKRS_FrAncestor_bulkdock_iter2

>  <name>  (1145) 
RIEOLFPCUKOBMX-UHFFFAOYSA-N-P44

$$$$
RLVZDMZJKUYYNU-UHFFFAOYSA-N-P49
     RDKit          3D

 14 14  0  0  0  0  0  0  0  0999 V2000
    1.8026  -16.1183   28.1457 C   0  0  0  0  0  0  0  0  0  0  0  0
    2.1085  -15.0104   27.2166 C   0  0  0  0  0  0  0  0  0  0  0  0
    1.2773  -13.9646   27.0965 N   0  0  0  0  0  0  0  0  0  0  0  0
    1.9557  -13.1376   26.2740 N   0  0  0  0  0  0  0  0  0  0  0  0
    3.0993  -13.6699   25.7329 C   0  0  0  0  0  0  0  0  0  0  0  0
    4.0272  -12.9939   24.8353 C   0  0  0  0  0  0  0  0  0  0  0  0
    5.1527  -13.2851   24.8580 O   0  0  0  0  0  0  0  0  0  0  0  0
    3.2999  -11.8900   24.0512 N   0  0  0  0  0  0  0  0  0  0  0  0
    3.7909  -10.9696   23.0545 C   0  0  0  0  0  0  0  0  0  0  0  0
    4.8956  -10.0728   23.6218 C   0  0  1  0  0  0  0  0  0  0  0  0
    5.4143   -9.0898   22.5907 C   0  0  0  0  0  0  0  0  0  0  0  0
    4.3794   -9.3514   24.6615 F   0  0  0  0  0  0  0  0  0  0  0  0
    3.2391  -14.8843   26.3753 C   0  0  0  0  0  0  0  0  0  0  0  0
    4.4974  -16.0175   26.2519 Cl  0  0  0  0  0  0  0  0  0  0  0  0
  1  2  1  0
  2  3  2  0
  3  4  1  0
  4  5  1  0
  5  6  1  0
  6  7  2  0
  6  8  1  0
  8  9  1  0
  9 10  1  0
 10 11  1  6
 10 12  1  0
  5 13  2  0
 13 14  1  0
 13  2  1  0
M  END
>  <inchikey>  (1146) 
RLVZDMZJKUYYNU-UHFFFAOYSA-N

>  <tags>  (1146) 
fragmenstein_placed,CpKRS_FrAncestor_bulkdock_iter2

>  <ref_pdb>  (1146) 
x0502c

>  <energy_score>  (1146) 
-0.621866

>  <distance_score>  (1146) 
0.5097

>  <HIPPO Pose ID>  (1146) 
58365

>  <ref_mols>  (1146) 
x0504b

>  <smiles>  (1146) 
Cc1n[nH]c(C(=O)NCC(C)F)c1Cl

>  <HIPPO Compound ID>  (1146) 
37650

>  <alias>  (1146) 
RLVZDMZJKUYYNU-UHFFFAOYSA-N-P49

>  <subsites>  (1146) 


>  <placement_batch>  (1146) 
CpKRS_FrAncestor_bulkdock_iter2

>  <name>  (1146) 
RLVZDMZJKUYYNU-UHFFFAOYSA-N-P49

$$$$
AKWRIZRPRYZKBD-UHFFFAOYSA-N-P48
     RDKit          3D

 14 14  0  0  0  0  0  0  0  0999 V2000
    2.1214  -15.8099   28.6738 C   0  0  0  0  0  0  0  0  0  0  0  0
    2.3642  -14.9189   27.5162 C   0  0  0  0  0  0  0  0  0  0  0  0
    1.5141  -13.9319   27.2212 N   0  0  0  0  0  0  0  0  0  0  0  0
    2.1594  -13.2269   26.2757 N   0  0  0  0  0  0  0  0  0  0  0  0
    3.3412  -13.7899   25.8643 C   0  0  0  0  0  0  0  0  0  0  0  0
    4.3130  -13.2083   24.9491 C   0  0  0  0  0  0  0  0  0  0  0  0
    5.4459  -13.2885   25.1967 O   0  0  0  0  0  0  0  0  0  0  0  0
    3.5978  -12.5160   23.7844 N   0  0  0  0  0  0  0  0  0  0  0  0
    4.1297  -11.8523   22.6200 C   0  0  0  0  0  0  0  0  0  0  0  0
    4.1667  -10.3309   22.7531 C   0  0  1  0  0  0  0  0  0  0  0  0
    4.9744   -9.8156   23.9279 C   0  0  0  0  0  0  0  0  0  0  0  0
    4.7050   -9.8039   21.6176 F   0  0  0  0  0  0  0  0  0  0  0  0
    3.4823  -14.9278   26.6456 C   0  0  0  0  0  0  0  0  0  0  0  0
    4.6035  -15.8948   26.6430 C   0  0  0  0  0  0  0  0  0  0  0  0
  1  2  1  0
  2  3  2  0
  3  4  1  0
  4  5  1  0
  5  6  1  0
  6  7  2  0
  6  8  1  0
  8  9  1  0
  9 10  1  0
 10 11  1  1
 10 12  1  0
  5 13  2  0
 13 14  1  0
 13  2  1  0
M  END
>  <inchikey>  (1147) 
AKWRIZRPRYZKBD-UHFFFAOYSA-N

>  <tags>  (1147) 
fragmenstein_placed,CpKRS_FrAncestor_bulkdock_iter2

>  <ref_pdb>  (1147) 
x0502c

>  <energy_score>  (1147) 
-5.37998

>  <distance_score>  (1147) 
0.554824

>  <HIPPO Pose ID>  (1147) 
58370

>  <ref_mols>  (1147) 
x0504a

>  <smiles>  (1147) 
Cc1n[nH]c(C(=O)NCC(C)F)c1C

>  <HIPPO Compound ID>  (1147) 
37652

>  <alias>  (1147) 
AKWRIZRPRYZKBD-UHFFFAOYSA-N-P48

>  <subsites>  (1147) 


>  <placement_batch>  (1147) 
CpKRS_FrAncestor_bulkdock_iter2

>  <name>  (1147) 
AKWRIZRPRYZKBD-UHFFFAOYSA-N-P48

$$$$
LOXHCFUARXANHZ-UHFFFAOYSA-N-P46
     RDKit          3D

 16 17  0  0  0  0  0  0  0  0999 V2000
    1.9045  -15.2563   28.8499 C   0  0  0  0  0  0  0  0  0  0  0  0
    2.0953  -14.4776   27.6113 C   0  0  0  0  0  0  0  0  0  0  0  0
    1.1459  -13.6316   27.1827 N   0  0  0  0  0  0  0  0  0  0  0  0
    1.7326  -13.0274   26.1268 N   0  0  0  0  0  0  0  0  0  0  0  0
    2.9732  -13.5121   25.8086 C   0  0  0  0  0  0  0  0  0  0  0  0
    3.8018  -13.0345   24.7443 C   0  0  0  0  0  0  0  0  0  0  0  0
    4.9912  -13.2672   24.5756 O   0  0  0  0  0  0  0  0  0  0  0  0
    3.0652  -12.2092   23.9405 O   0  0  0  0  0  0  0  0  0  0  0  0
    3.7812  -11.6670   22.8213 C   0  0  0  0  0  0  0  0  0  0  0  0
    4.6632  -10.5102   23.2523 C   0  0  0  0  0  0  0  0  0  0  0  0
    5.1971   -9.6581   22.1068 C   0  0  0  0  0  0  0  0  0  0  0  0
    5.5335   -8.3146   22.7559 C   0  0  0  0  0  0  0  0  0  0  0  0
    4.9519   -8.3649   24.1678 C   0  0  0  0  0  0  0  0  0  0  0  0
    3.9399   -9.4885   24.1158 C   0  0  0  0  0  0  0  0  0  0  0  0
    3.2097  -14.4793   26.7516 C   0  0  0  0  0  0  0  0  0  0  0  0
    4.7110  -15.5734   26.9361 Br  0  0  0  0  0  0  0  0  0  0  0  0
  1  2  1  0
  2  3  2  0
  3  4  1  0
  4  5  1  0
  5  6  1  0
  6  7  2  0
  6  8  1  0
  8  9  1  0
  9 10  1  0
 10 11  1  0
 11 12  1  0
 12 13  1  0
 13 14  1  0
  5 15  2  0
 15 16  1  0
 15  2  1  0
 14 10  1  0
M  END
>  <inchikey>  (1148) 
LOXHCFUARXANHZ-UHFFFAOYSA-N

>  <tags>  (1148) 
fragmenstein_placed,CpKRS_FrAncestor_bulkdock_iter2

>  <ref_pdb>  (1148) 
x0502c

>  <energy_score>  (1148) 
-40.430572

>  <distance_score>  (1148) 
0.446821

>  <HIPPO Pose ID>  (1148) 
58396

>  <ref_mols>  (1148) 
x0502c

>  <smiles>  (1148) 
Cc1n[nH]c(C(=O)OCC2CCCC2)c1Br

>  <HIPPO Compound ID>  (1148) 
37656

>  <alias>  (1148) 
LOXHCFUARXANHZ-UHFFFAOYSA-N-P46

>  <subsites>  (1148) 


>  <placement_batch>  (1148) 
CpKRS_FrAncestor_bulkdock_iter2

>  <name>  (1148) 
LOXHCFUARXANHZ-UHFFFAOYSA-N-P46

$$$$
QKPCKCJMELCPGX-UHFFFAOYSA-N-P46
     RDKit          3D

 16 17  0  0  0  0  0  0  0  0999 V2000
    2.0157  -15.3103   28.8161 C   0  0  0  0  0  0  0  0  0  0  0  0
    2.2252  -14.5426   27.5750 C   0  0  0  0  0  0  0  0  0  0  0  0
    1.2757  -13.7132   27.1164 N   0  0  0  0  0  0  0  0  0  0  0  0
    1.8773  -13.1278   26.0618 N   0  0  0  0  0  0  0  0  0  0  0  0
    3.1343  -13.5950   25.7887 C   0  0  0  0  0  0  0  0  0  0  0  0
    3.9769  -13.1136   24.7386 C   0  0  0  0  0  0  0  0  0  0  0  0
    5.1763  -13.3135   24.6064 O   0  0  0  0  0  0  0  0  0  0  0  0
    3.2383  -12.3197   23.9052 O   0  0  0  0  0  0  0  0  0  0  0  0
    3.9625  -11.7615   22.7992 C   0  0  0  0  0  0  0  0  0  0  0  0
    4.7468  -10.5406   23.2421 C   0  0  0  0  0  0  0  0  0  0  0  0
    5.2477   -9.6618   22.1021 C   0  0  0  0  0  0  0  0  0  0  0  0
    5.4785   -8.2947   22.7464 C   0  0  0  0  0  0  0  0  0  0  0  0
    4.8489   -8.3663   24.1368 C   0  0  0  0  0  0  0  0  0  0  0  0
    3.9282   -9.5656   24.0747 C   0  0  0  0  0  0  0  0  0  0  0  0
    3.3721  -14.5505   26.7473 C   0  0  0  0  0  0  0  0  0  0  0  0
    4.7447  -15.5203   26.9625 Cl  0  0  0  0  0  0  0  0  0  0  0  0
  1  2  1  0
  2  3  2  0
  3  4  1  0
  4  5  1  0
  5  6  1  0
  6  7  2  0
  6  8  1  0
  8  9  1  0
  9 10  1  0
 10 11  1  0
 11 12  1  0
 12 13  1  0
 13 14  1  0
  5 15  2  0
 15 16  1  0
 15  2  1  0
 14 10  1  0
M  END
>  <inchikey>  (1149) 
QKPCKCJMELCPGX-UHFFFAOYSA-N

>  <tags>  (1149) 
fragmenstein_placed,CpKRS_FrAncestor_bulkdock_iter2

>  <ref_pdb>  (1149) 
x0502c

>  <energy_score>  (1149) 
-40.440853

>  <distance_score>  (1149) 
0.379125

>  <HIPPO Pose ID>  (1149) 
58399

>  <ref_mols>  (1149) 
x0502c

>  <smiles>  (1149) 
Cc1n[nH]c(C(=O)OCC2CCCC2)c1Cl

>  <HIPPO Compound ID>  (1149) 
37657

>  <alias>  (1149) 
QKPCKCJMELCPGX-UHFFFAOYSA-N-P46

>  <subsites>  (1149) 


>  <placement_batch>  (1149) 
CpKRS_FrAncestor_bulkdock_iter2

>  <name>  (1149) 
QKPCKCJMELCPGX-UHFFFAOYSA-N-P46

$$$$
GFCDQFKTHSGJRF-UHFFFAOYSA-N-P45
     RDKit          3D

 15 16  0  0  0  0  0  0  0  0999 V2000
    4.1409  -15.7934   27.3783 C   0  0  0  0  0  0  0  0  0  0  0  0
    3.0969  -14.8063   27.0125 C   0  0  0  0  0  0  0  0  0  0  0  0
    1.8985  -14.8420   27.7272 N   0  0  0  0  0  0  0  0  0  0  0  0
    1.0423  -13.9295   27.3066 N   0  0  0  0  0  0  0  0  0  0  0  0
    1.6443  -13.0204   26.0536 S   0  0  0  0  0  0  0  0  0  0  0  0
    3.1567  -13.8280   26.0256 C   0  0  0  0  0  0  0  0  0  0  0  0
    4.2531  -13.4613   25.1269 C   0  0  0  0  0  0  0  0  0  0  0  0
    5.3055  -13.9390   25.2808 O   0  0  0  0  0  0  0  0  0  0  0  0
    3.7786  -12.3927   24.1221 N   0  0  0  0  0  0  0  0  0  0  0  0
    4.4743  -11.7576   23.0358 C   0  0  0  0  0  0  0  0  0  0  0  0
    4.2699  -10.2439   23.0379 C   0  0  2  0  0  0  0  0  0  0  0  0
    4.9876   -9.5491   21.8924 C   0  0  0  0  0  0  0  0  0  0  0  0
    5.1792   -8.1683   22.4590 C   0  0  0  0  0  0  0  0  0  0  0  0
    5.5292   -8.4737   23.8972 C   0  0  0  0  0  0  0  0  0  0  0  0
    4.7826   -9.6460   24.2493 O   0  0  0  0  0  0  0  0  0  0  0  0
  1  2  1  0
  2  3  1  0
  3  4  2  0
  4  5  1  0
  5  6  1  0
  6  7  1  0
  7  8  2  0
  7  9  1  0
  9 10  1  0
 11 10  1  1
 11 12  1  0
 12 13  1  0
 13 14  1  0
 14 15  1  0
  6  2  2  0
 15 11  1  0
M  END
>  <inchikey>  (1150) 
GFCDQFKTHSGJRF-UHFFFAOYSA-N

>  <tags>  (1150) 
fragmenstein_placed,CpKRS_FrAncestor_bulkdock_iter2

>  <ref_pdb>  (1150) 
x0502c

>  <energy_score>  (1150) 
-21.04418

>  <distance_score>  (1150) 
0.353088

>  <HIPPO Pose ID>  (1150) 
58400

>  <ref_mols>  (1150) 
x0502a

>  <smiles>  (1150) 
Cc1nnsc1C(=O)NCC1CCCO1

>  <HIPPO Compound ID>  (1150) 
37658

>  <alias>  (1150) 
GFCDQFKTHSGJRF-UHFFFAOYSA-N-P45

>  <subsites>  (1150) 


>  <placement_batch>  (1150) 
CpKRS_FrAncestor_bulkdock_iter2

>  <name>  (1150) 
GFCDQFKTHSGJRF-UHFFFAOYSA-N-P45

$$$$
DRRZWVNBDVGMGR-UHFFFAOYSA-N-P46
     RDKit          3D

 15 16  0  0  0  0  0  0  0  0999 V2000
    4.4661  -15.5795   27.0060 C   0  0  0  0  0  0  0  0  0  0  0  0
    3.3055  -14.6812   26.8012 C   0  0  0  0  0  0  0  0  0  0  0  0
    2.2125  -14.8327   27.6532 N   0  0  0  0  0  0  0  0  0  0  0  0
    1.2380  -13.9912   27.3603 N   0  0  0  0  0  0  0  0  0  0  0  0
    1.5927  -13.0241   26.0504 S   0  0  0  0  0  0  0  0  0  0  0  0
    3.1579  -13.6920   25.8379 C   0  0  0  0  0  0  0  0  0  0  0  0
    4.0792  -13.2236   24.8346 C   0  0  0  0  0  0  0  0  0  0  0  0
    5.2822  -13.4594   24.7974 O   0  0  0  0  0  0  0  0  0  0  0  0
    3.4440  -12.4294   23.9200 O   0  0  0  0  0  0  0  0  0  0  0  0
    4.2353  -11.9048   22.8408 C   0  0  0  0  0  0  0  0  0  0  0  0
    4.9062  -10.6111   23.2590 C   0  0  2  0  0  0  0  0  0  0  0  0
    4.0281   -9.6792   24.0585 C   0  0  0  0  0  0  0  0  0  0  0  0
    4.8321   -8.4088   23.9771 C   0  0  0  0  0  0  0  0  0  0  0  0
    5.3567   -8.3658   22.6444 O   0  0  0  0  0  0  0  0  0  0  0  0
    5.3259   -9.7046   22.1136 C   0  0  0  0  0  0  0  0  0  0  0  0
  1  2  1  0
  2  3  1  0
  3  4  2  0
  4  5  1  0
  5  6  1  0
  6  7  1  0
  7  8  2  0
  7  9  1  0
  9 10  1  0
 11 10  1  6
 11 12  1  0
 12 13  1  0
 13 14  1  0
 14 15  1  0
  6  2  2  0
 15 11  1  0
M  END
>  <inchikey>  (1151) 
DRRZWVNBDVGMGR-UHFFFAOYSA-N

>  <tags>  (1151) 
fragmenstein_placed,CpKRS_FrAncestor_bulkdock_iter2

>  <ref_pdb>  (1151) 
x0502c

>  <energy_score>  (1151) 
-70.823933

>  <distance_score>  (1151) 
0.273978

>  <HIPPO Pose ID>  (1151) 
58405

>  <ref_mols>  (1151) 
x0502c

>  <smiles>  (1151) 
Cc1nnsc1C(=O)OCC1CCOC1

>  <HIPPO Compound ID>  (1151) 
37659

>  <alias>  (1151) 
DRRZWVNBDVGMGR-UHFFFAOYSA-N-P46

>  <subsites>  (1151) 


>  <placement_batch>  (1151) 
CpKRS_FrAncestor_bulkdock_iter2

>  <name>  (1151) 
DRRZWVNBDVGMGR-UHFFFAOYSA-N-P46

$$$$
MOCVQCWWGHHPEU-UHFFFAOYSA-N-P47
     RDKit          3D

 14 14  0  0  0  0  0  0  0  0999 V2000
    3.9206    2.0599   46.6697 C   0  0  0  0  0  0  0  0  0  0  0  0
    3.3509    3.2479   46.0250 C   0  0  0  0  0  0  0  0  0  0  0  0
    2.5767    4.0976   46.7123 N   0  0  0  0  0  0  0  0  0  0  0  0
    2.1683    4.9842   45.7833 N   0  0  0  0  0  0  0  0  0  0  0  0
    2.6988    4.7604   44.5413 C   0  0  0  0  0  0  0  0  0  0  0  0
    2.4035    5.4865   43.3357 C   0  0  0  0  0  0  0  0  0  0  0  0
    2.2793    4.8948   42.3461 O   0  0  0  0  0  0  0  0  0  0  0  0
    2.3739    6.9909   43.6004 N   0  0  0  0  0  0  0  0  0  0  0  0
    2.2786    8.1027   42.6845 C   0  0  0  0  0  0  0  0  0  0  0  0
    3.4002    8.0261   41.6565 C   0  0  0  0  0  0  0  0  0  0  0  0
    3.3993    9.1269   40.8693 F   0  0  0  0  0  0  0  0  0  0  0  0
    4.5929    8.0188   42.3181 F   0  0  0  0  0  0  0  0  0  0  0  0
    3.4662    3.6291   44.6861 C   0  0  0  0  0  0  0  0  0  0  0  0
    4.4602    2.6950   43.4015 Br  0  0  0  0  0  0  0  0  0  0  0  0
  1  2  1  0
  2  3  2  0
  3  4  1  0
  4  5  1  0
  5  6  1  0
  6  7  2  0
  6  8  1  0
  8  9  1  0
  9 10  1  0
 10 11  1  0
 10 12  1  0
  5 13  2  0
 13 14  1  0
 13  2  1  0
M  END
>  <inchikey>  (1152) 
MOCVQCWWGHHPEU-UHFFFAOYSA-N

>  <tags>  (1152) 
fragmenstein_placed,CpKRS_FrAncestor_bulkdock_iter2

>  <ref_pdb>  (1152) 
x0502c

>  <energy_score>  (1152) 
-2.345178

>  <distance_score>  (1152) 
0.750362

>  <HIPPO Pose ID>  (1152) 
58414

>  <ref_mols>  (1152) 
x0504c

>  <smiles>  (1152) 
Cc1n[nH]c(C(=O)NCC(F)F)c1Br

>  <HIPPO Compound ID>  (1152) 
37662

>  <alias>  (1152) 
MOCVQCWWGHHPEU-UHFFFAOYSA-N-P47

>  <subsites>  (1152) 


>  <placement_batch>  (1152) 
CpKRS_FrAncestor_bulkdock_iter2

>  <name>  (1152) 
MOCVQCWWGHHPEU-UHFFFAOYSA-N-P47

$$$$
QIXGFJPHRKAAMZ-UHFFFAOYSA-N-P47
     RDKit          3D

 14 14  0  0  0  0  0  0  0  0999 V2000
    3.9479    2.0283   46.6551 C   0  0  0  0  0  0  0  0  0  0  0  0
    3.3727    3.2160   46.0139 C   0  0  0  0  0  0  0  0  0  0  0  0
    2.6040    4.0675   46.7040 N   0  0  0  0  0  0  0  0  0  0  0  0
    2.1948    4.9500   45.7738 N   0  0  0  0  0  0  0  0  0  0  0  0
    2.7219    4.7205   44.5322 C   0  0  0  0  0  0  0  0  0  0  0  0
    2.4273    5.4461   43.3268 C   0  0  0  0  0  0  0  0  0  0  0  0
    2.3096    4.8544   42.3364 O   0  0  0  0  0  0  0  0  0  0  0  0
    2.3827    6.9503   43.5932 N   0  0  0  0  0  0  0  0  0  0  0  0
    2.2770    8.0624   42.6782 C   0  0  0  0  0  0  0  0  0  0  0  0
    3.4050    8.0061   41.6562 C   0  0  0  0  0  0  0  0  0  0  0  0
    3.3907    9.1088   40.8717 F   0  0  0  0  0  0  0  0  0  0  0  0
    4.5936    8.0167   42.3250 F   0  0  0  0  0  0  0  0  0  0  0  0
    3.4889    3.5837   44.6657 C   0  0  0  0  0  0  0  0  0  0  0  0
    4.3820    2.7360   43.4953 Cl  0  0  0  0  0  0  0  0  0  0  0  0
  1  2  1  0
  2  3  2  0
  3  4  1  0
  4  5  1  0
  5  6  1  0
  6  7  2  0
  6  8  1  0
  8  9  1  0
  9 10  1  0
 10 11  1  0
 10 12  1  0
  5 13  2  0
 13 14  1  0
 13  2  1  0
M  END
>  <inchikey>  (1153) 
QIXGFJPHRKAAMZ-UHFFFAOYSA-N

>  <tags>  (1153) 
fragmenstein_placed,CpKRS_FrAncestor_bulkdock_iter2

>  <ref_pdb>  (1153) 
x0502c

>  <energy_score>  (1153) 
-1.972755

>  <distance_score>  (1153) 
0.720402

>  <HIPPO Pose ID>  (1153) 
58417

>  <ref_mols>  (1153) 
x0504c

>  <smiles>  (1153) 
Cc1n[nH]c(C(=O)NCC(F)F)c1Cl

>  <HIPPO Compound ID>  (1153) 
37663

>  <alias>  (1153) 
QIXGFJPHRKAAMZ-UHFFFAOYSA-N-P47

>  <subsites>  (1153) 


>  <placement_batch>  (1153) 
CpKRS_FrAncestor_bulkdock_iter2

>  <name>  (1153) 
QIXGFJPHRKAAMZ-UHFFFAOYSA-N-P47

$$$$
AUYJQOKRAYGZAZ-RXMQYKEDSA-N-P49
     RDKit          3D

 14 14  0  0  0  0  0  0  0  0999 V2000
    1.7542  -16.1018   28.1750 C   0  0  0  0  0  0  0  0  0  0  0  0
    2.0890  -15.0024   27.2452 C   0  0  0  0  0  0  0  0  0  0  0  0
    1.2818  -13.9427   27.1195 N   0  0  0  0  0  0  0  0  0  0  0  0
    1.9734  -13.1276   26.3015 N   0  0  0  0  0  0  0  0  0  0  0  0
    3.1237  -13.6686   25.7869 C   0  0  0  0  0  0  0  0  0  0  0  0
    4.0866  -13.0098   24.9033 C   0  0  0  0  0  0  0  0  0  0  0  0
    5.1920  -13.3758   24.8985 O   0  0  0  0  0  0  0  0  0  0  0  0
    3.4103  -11.8707   24.1208 N   0  0  0  0  0  0  0  0  0  0  0  0
    3.9744  -10.8746   23.2327 C   0  0  2  0  0  0  0  0  0  0  0  0
    4.5858  -11.5524   22.0189 C   0  0  0  0  0  0  0  0  0  0  0  0
    5.0236  -10.0098   23.9292 C   0  0  0  0  0  0  0  0  0  0  0  0
    4.4366   -9.3237   24.9480 F   0  0  0  0  0  0  0  0  0  0  0  0
    3.2350  -14.9041   26.4139 C   0  0  0  0  0  0  0  0  0  0  0  0
    4.3413  -15.8875   26.2879 C   0  0  0  0  0  0  0  0  0  0  0  0
  1  2  1  0
  2  3  2  0
  3  4  1  0
  4  5  1  0
  5  6  1  0
  6  7  2  0
  6  8  1  0
  8  9  1  0
  9 10  1  6
  9 11  1  0
 11 12  1  0
  5 13  2  0
 13 14  1  0
 13  2  1  0
M  END
>  <inchikey>  (1154) 
AUYJQOKRAYGZAZ-UHFFFAOYSA-N

>  <tags>  (1154) 
fragmenstein_placed,CpKRS_FrAncestor_bulkdock_iter2

>  <ref_pdb>  (1154) 
x0502c

>  <energy_score>  (1154) 
-1.821511

>  <distance_score>  (1154) 
0.330187

>  <HIPPO Pose ID>  (1154) 
58422

>  <ref_mols>  (1154) 
x0504b

>  <smiles>  (1154) 
Cc1n[nH]c(C(=O)N[C@H](C)CF)c1C

>  <HIPPO Compound ID>  (1154) 
37651

>  <alias>  (1154) 
AUYJQOKRAYGZAZ-RXMQYKEDSA-N-P49

>  <subsites>  (1154) 


>  <placement_batch>  (1154) 
CpKRS_FrAncestor_bulkdock_iter2

>  <name>  (1154) 
AUYJQOKRAYGZAZ-RXMQYKEDSA-N-P49

$$$$
SGKUJGWLTBIPQM-UHFFFAOYSA-N-P47
     RDKit          3D

 17 17  0  0  0  0  0  0  0  0999 V2000
    4.1878    2.7186   43.8449 C   0  0  0  0  0  0  0  0  0  0  0  0
    3.4559    3.6273   44.7714 C   0  0  0  0  0  0  0  0  0  0  0  0
    3.3594    3.2464   46.1073 N   0  0  0  0  0  0  0  0  0  0  0  0
    2.6704    4.1200   46.8183 N   0  0  0  0  0  0  0  0  0  0  0  0
    2.1463    5.4234   45.9151 S   0  0  0  0  0  0  0  0  0  0  0  0
    2.8331    4.8380   44.4632 C   0  0  0  0  0  0  0  0  0  0  0  0
    2.6911    5.4960   43.1658 C   0  0  0  0  0  0  0  0  0  0  0  0
    2.8293    4.8408   42.2134 O   0  0  0  0  0  0  0  0  0  0  0  0
    2.3991    7.0027   43.3075 N   0  0  0  0  0  0  0  0  0  0  0  0
    2.3090    8.0507   42.2946 C   0  0  2  0  0  0  0  0  0  0  0  0
    1.1772    7.8415   41.3022 C   0  0  0  0  0  0  0  0  0  0  0  0
    3.6891    8.2003   41.6484 C   0  0  0  0  0  0  0  0  0  0  0  0
    4.7151    8.2195   42.3182 O   0  0  0  0  0  0  0  0  0  0  0  0
    3.6280    8.3241   40.2977 O   0  0  0  0  0  0  0  0  0  0  0  0
    4.8403    8.3549   39.5082 C   0  0  0  0  0  0  0  0  0  0  0  0
    5.6255    7.0528   39.6122 C   0  0  0  0  0  0  0  0  0  0  0  0
    5.6754    9.5985   39.7820 C   0  0  0  0  0  0  0  0  0  0  0  0
  1  2  1  0
  2  3  1  0
  3  4  2  0
  4  5  1  0
  5  6  1  0
  6  7  1  0
  7  8  2  0
  7  9  1  0
  9 10  1  0
 10 11  1  6
 10 12  1  0
 12 13  2  0
 12 14  1  0
 14 15  1  0
 15 16  1  0
 15 17  1  0
  6  2  2  0
M  END
>  <inchikey>  (1155) 
SGKUJGWLTBIPQM-UHFFFAOYSA-N

>  <tags>  (1155) 
fragmenstein_placed,CpKRS_FrAncestor_bulkdock_iter2

>  <ref_pdb>  (1155) 
x0502c

>  <energy_score>  (1155) 
-33.692158

>  <distance_score>  (1155) 
0.760705

>  <HIPPO Pose ID>  (1155) 
58426

>  <ref_mols>  (1155) 
x0504c

>  <smiles>  (1155) 
Cc1nnsc1C(=O)NC(C)C(=O)OC(C)C

>  <HIPPO Compound ID>  (1155) 
37664

>  <alias>  (1155) 
SGKUJGWLTBIPQM-UHFFFAOYSA-N-P47

>  <subsites>  (1155) 


>  <placement_batch>  (1155) 
CpKRS_FrAncestor_bulkdock_iter2

>  <name>  (1155) 
SGKUJGWLTBIPQM-UHFFFAOYSA-N-P47

$$$$
GVDWJLZQFYNLTL-UHFFFAOYSA-N-P47
     RDKit          3D

 12 12  0  0  0  0  0  0  0  0999 V2000
    4.3452    2.4192   44.0040 C   0  0  0  0  0  0  0  0  0  0  0  0
    3.5877    3.2862   44.9472 C   0  0  0  0  0  0  0  0  0  0  0  0
    3.4885    2.8851   46.2752 N   0  0  0  0  0  0  0  0  0  0  0  0
    2.7633    3.7261   46.9905 N   0  0  0  0  0  0  0  0  0  0  0  0
    2.2113    5.0245   46.1026 S   0  0  0  0  0  0  0  0  0  0  0  0
    2.9337    4.4782   44.6522 C   0  0  0  0  0  0  0  0  0  0  0  0
    2.8126    5.1558   43.3690 C   0  0  0  0  0  0  0  0  0  0  0  0
    3.0919    4.5679   42.4049 O   0  0  0  0  0  0  0  0  0  0  0  0
    2.3395    6.6050   43.5484 N   0  0  0  0  0  0  0  0  0  0  0  0
    2.1996    7.6714   42.5866 C   0  0  0  0  0  0  0  0  0  0  0  0
    3.4614    7.8467   41.7592 C   0  0  0  0  0  0  0  0  0  0  0  0
    4.5220    7.9890   42.6028 F   0  0  0  0  0  0  0  0  0  0  0  0
  1  2  1  0
  2  3  1  0
  3  4  2  0
  4  5  1  0
  5  6  1  0
  6  7  1  0
  7  8  2  0
  7  9  1  0
  9 10  1  0
 10 11  1  0
 11 12  1  0
  6  2  2  0
M  END
>  <inchikey>  (1156) 
GVDWJLZQFYNLTL-UHFFFAOYSA-N

>  <tags>  (1156) 
fragmenstein_placed,CpKRS_FrAncestor_bulkdock_iter2

>  <ref_pdb>  (1156) 
x0502c

>  <energy_score>  (1156) 
-16.476167

>  <distance_score>  (1156) 
0.345716

>  <HIPPO Pose ID>  (1156) 
58429

>  <ref_mols>  (1156) 
x0504c

>  <smiles>  (1156) 
Cc1nnsc1C(=O)NCCF

>  <HIPPO Compound ID>  (1156) 
37665

>  <alias>  (1156) 
GVDWJLZQFYNLTL-UHFFFAOYSA-N-P47

>  <subsites>  (1156) 


>  <placement_batch>  (1156) 
CpKRS_FrAncestor_bulkdock_iter2

>  <name>  (1156) 
GVDWJLZQFYNLTL-UHFFFAOYSA-N-P47

$$$$
KFYICQZKGPCAMW-UHFFFAOYSA-N-P47
     RDKit          3D

 17 17  0  0  0  0  0  0  0  0999 V2000
    4.3037    2.4710   44.0354 C   0  0  0  0  0  0  0  0  0  0  0  0
    3.5564    3.3522   44.9743 C   0  0  0  0  0  0  0  0  0  0  0  0
    3.5111    3.0002   46.3190 N   0  0  0  0  0  0  0  0  0  0  0  0
    2.7911    3.8533   47.0267 N   0  0  0  0  0  0  0  0  0  0  0  0
    2.1871    5.1113   46.1106 S   0  0  0  0  0  0  0  0  0  0  0  0
    2.8519    4.5088   44.6583 C   0  0  0  0  0  0  0  0  0  0  0  0
    2.5875    5.0813   43.3508 C   0  0  0  0  0  0  0  0  0  0  0  0
    2.5989    4.3680   42.4340 O   0  0  0  0  0  0  0  0  0  0  0  0
    2.3096    6.5852   43.4350 N   0  0  0  0  0  0  0  0  0  0  0  0
    2.0778    7.5566   42.3914 C   0  0  0  0  0  0  0  0  0  0  0  0
    3.4154    8.0029   41.8285 C   0  0  0  0  0  0  0  0  0  0  0  0
    4.4371    8.0823   42.4999 O   0  0  0  0  0  0  0  0  0  0  0  0
    3.2950    8.3040   40.5074 O   0  0  0  0  0  0  0  0  0  0  0  0
    4.4679    8.5965   39.7009 C   0  0  0  0  0  0  0  0  0  0  0  0
    5.1744    9.8667   40.1799 C   0  0  0  0  0  0  0  0  0  0  0  0
    3.9199    8.8467   38.2877 C   0  0  0  0  0  0  0  0  0  0  0  0
    5.4158    7.3929   39.6500 C   0  0  0  0  0  0  0  0  0  0  0  0
  1  2  1  0
  2  3  1  0
  3  4  2  0
  4  5  1  0
  5  6  1  0
  6  7  1  0
  7  8  2  0
  7  9  1  0
  9 10  1  0
 10 11  1  0
 11 12  2  0
 11 13  1  0
 13 14  1  0
 14 15  1  0
 14 16  1  0
 14 17  1  0
  6  2  2  0
M  END
>  <inchikey>  (1157) 
KFYICQZKGPCAMW-UHFFFAOYSA-N

>  <tags>  (1157) 
fragmenstein_placed,CpKRS_FrAncestor_bulkdock_iter2

>  <ref_pdb>  (1157) 
x0502c

>  <energy_score>  (1157) 
-65.59018

>  <distance_score>  (1157) 
0.519885

>  <HIPPO Pose ID>  (1157) 
58432

>  <ref_mols>  (1157) 
x0504c

>  <smiles>  (1157) 
Cc1nnsc1C(=O)NCC(=O)OC(C)(C)C

>  <HIPPO Compound ID>  (1157) 
37666

>  <alias>  (1157) 
KFYICQZKGPCAMW-UHFFFAOYSA-N-P47

>  <subsites>  (1157) 


>  <placement_batch>  (1157) 
CpKRS_FrAncestor_bulkdock_iter2

>  <name>  (1157) 
KFYICQZKGPCAMW-UHFFFAOYSA-N-P47

$$$$
PZLPLPIBCJWKEU-UHFFFAOYSA-N-P15
     RDKit          3D

 17 18  0  0  0  0  0  0  0  0999 V2000
    4.6326  -23.5491   17.3214 C   0  0  0  0  0  0  0  0  0  0  0  0
    3.7222  -24.5886   17.8252 C   0  0  0  0  0  0  0  0  0  0  0  0
    3.5717  -24.7253   19.1463 N   0  0  0  0  0  0  0  0  0  0  0  0
    2.6348  -25.7207   19.3139 O   0  0  0  0  0  0  0  0  0  0  0  0
    2.2799  -26.2096   18.1038 C   0  0  0  0  0  0  0  0  0  0  0  0
    2.9830  -25.5662   17.1087 C   0  0  0  0  0  0  0  0  0  0  0  0
    3.0743  -25.9681   15.6926 C   0  0  0  0  0  0  0  0  0  0  0  0
    2.5022  -25.0625   14.7613 N   0  0  0  0  0  0  0  0  0  0  0  0
    2.3046  -25.1853   13.2415 C   0  0  0  0  0  0  0  0  0  0  0  0
    2.6482  -26.0148   12.5004 O   0  0  0  0  0  0  0  0  0  0  0  0
    1.5549  -24.0334   12.6954 C   0  0  0  0  0  0  0  0  0  0  0  0
    2.0229  -23.4179   11.5287 C   0  0  0  0  0  0  0  0  0  0  0  0
    1.3882  -22.2704   11.0678 C   0  0  0  0  0  0  0  0  0  0  0  0
    0.2781  -21.7753   11.7415 C   0  0  0  0  0  0  0  0  0  0  0  0
   -0.2377  -22.4497   12.8436 C   0  0  0  0  0  0  0  0  0  0  0  0
   -1.7941  -21.8349   13.7258 Br  0  0  0  0  0  0  0  0  0  0  0  0
    0.4002  -23.5790   13.3316 C   0  0  0  0  0  0  0  0  0  0  0  0
  1  2  1  0
  2  3  2  0
  3  4  1  0
  4  5  1  0
  5  6  2  0
  6  7  1  0
  7  8  1  0
  8  9  1  0
  9 10  2  0
  9 11  1  0
 11 12  2  0
 12 13  1  0
 13 14  2  0
 14 15  1  0
 15 16  1  0
 15 17  2  0
  6  2  1  0
 17 11  1  0
M  END
>  <inchikey>  (1158) 
PZLPLPIBCJWKEU-UHFFFAOYSA-N

>  <tags>  (1158) 
fragmenstein_placed,CpKRS_FrAncestor_bulkdock_iter2

>  <ref_pdb>  (1158) 
x0502c

>  <energy_score>  (1158) 
-4.661738

>  <distance_score>  (1158) 
0.800474

>  <HIPPO Pose ID>  (1158) 
58434

>  <ref_mols>  (1158) 
x0426b

>  <smiles>  (1158) 
Cc1nocc1CNC(=O)c1cccc(Br)c1

>  <HIPPO Compound ID>  (1158) 
37667

>  <alias>  (1158) 
PZLPLPIBCJWKEU-UHFFFAOYSA-N-P15

>  <subsites>  (1158) 


>  <placement_batch>  (1158) 
CpKRS_FrAncestor_bulkdock_iter2

>  <name>  (1158) 
PZLPLPIBCJWKEU-UHFFFAOYSA-N-P15

$$$$
VLTIYNKYLJVTGB-UHFFFAOYSA-N-P16
     RDKit          3D

 17 18  0  0  0  0  0  0  0  0999 V2000
    5.2631   -9.8050   20.9333 C   0  0  0  0  0  0  0  0  0  0  0  0
    4.5972   -9.8628   22.2284 C   0  0  0  0  0  0  0  0  0  0  0  0
    4.2495   -8.7127   22.8160 N   0  0  0  0  0  0  0  0  0  0  0  0
    3.7084   -9.0745   24.0254 O   0  0  0  0  0  0  0  0  0  0  0  0
    3.6915  -10.4205   24.1155 C   0  0  0  0  0  0  0  0  0  0  0  0
    4.2365  -10.9978   22.9923 C   0  0  0  0  0  0  0  0  0  0  0  0
    4.4024  -12.4464   22.6700 C   0  0  0  0  0  0  0  0  0  0  0  0
    3.8230  -13.1887   23.7497 N   0  0  0  0  0  0  0  0  0  0  0  0
    4.4654  -13.7759   25.0140 C   0  0  0  0  0  0  0  0  0  0  0  0
    5.5803  -13.8176   25.3436 O   0  0  0  0  0  0  0  0  0  0  0  0
    3.4285  -14.2742   25.9847 C   0  0  0  0  0  0  0  0  0  0  0  0
    2.1703  -13.6488   26.0857 C   0  0  0  0  0  0  0  0  0  0  0  0
    1.3036  -13.9504   27.1359 C   0  0  0  0  0  0  0  0  0  0  0  0
    1.6969  -14.8602   28.1088 C   0  0  0  0  0  0  0  0  0  0  0  0
    2.9369  -15.4900   28.0101 C   0  0  0  0  0  0  0  0  0  0  0  0
    3.3962  -16.5757   29.2552 Cl  0  0  0  0  0  0  0  0  0  0  0  0
    3.8045  -15.2091   26.9556 C   0  0  0  0  0  0  0  0  0  0  0  0
  1  2  1  0
  2  3  2  0
  3  4  1  0
  4  5  1  0
  5  6  2  0
  6  7  1  0
  7  8  1  0
  8  9  1  0
  9 10  2  0
  9 11  1  0
 11 12  2  0
 12 13  1  0
 13 14  2  0
 14 15  1  0
 15 16  1  0
 15 17  2  0
  6  2  1  0
 17 11  1  0
M  END
>  <inchikey>  (1159) 
VLTIYNKYLJVTGB-UHFFFAOYSA-N

>  <tags>  (1159) 
fragmenstein_placed,CpKRS_FrAncestor_bulkdock_iter2

>  <ref_pdb>  (1159) 
x0502c

>  <energy_score>  (1159) 
-5.212642

>  <distance_score>  (1159) 
0.903244

>  <HIPPO Pose ID>  (1159) 
58437

>  <ref_mols>  (1159) 
x0426a

>  <smiles>  (1159) 
Cc1nocc1CNC(=O)c1cccc(Cl)c1

>  <HIPPO Compound ID>  (1159) 
37669

>  <alias>  (1159) 
VLTIYNKYLJVTGB-UHFFFAOYSA-N-P16

>  <subsites>  (1159) 


>  <placement_batch>  (1159) 
CpKRS_FrAncestor_bulkdock_iter2

>  <name>  (1159) 
VLTIYNKYLJVTGB-UHFFFAOYSA-N-P16

$$$$
IFPFWVOFRIVMMN-MFKMUULPSA-N-P12
     RDKit          3D

 18 19  0  0  0  0  0  0  0  0999 V2000
    4.2479  -15.1832   26.6206 C   0  0  0  0  0  0  0  0  0  0  0  0
    3.0581  -14.4078   26.1763 C   0  0  0  0  0  0  0  0  0  0  0  0
    1.8328  -14.8149   26.5531 N   0  0  0  0  0  0  0  0  0  0  0  0
    0.9988  -13.9264   25.9872 N   0  0  0  0  0  0  0  0  0  0  0  0
   -0.4453  -14.0839   26.0982 C   0  0  0  0  0  0  0  0  0  0  0  0
   -1.0682  -14.4127   24.7384 C   0  0  0  0  0  0  0  0  0  0  0  0
   -1.1420  -12.8818   26.7234 C   0  0  0  0  0  0  0  0  0  0  0  0
    1.6436  -13.0098   25.2186 C   0  0  0  0  0  0  0  0  0  0  0  0
    3.0000  -13.2372   25.3626 C   0  0  0  0  0  0  0  0  0  0  0  0
    4.0785  -12.4448   24.7588 C   0  0  0  0  0  0  0  0  0  0  0  0
    5.1271  -12.9112   24.5501 O   0  0  0  0  0  0  0  0  0  0  0  0
    3.5427  -11.0206   24.4836 N   0  0  0  0  0  0  0  0  0  0  0  0
    4.1510   -9.9115   23.8131 C   0  0  1  0  0  0  0  0  0  0  0  0
    5.4750   -9.4308   24.3723 C   0  0  0  0  0  0  0  0  0  0  0  0
    5.8841   -8.3938   23.3434 C   0  0  0  0  0  0  0  0  0  0  0  0
    5.5015   -9.0126   22.0025 C   0  0  0  0  0  0  0  0  0  0  0  0
    4.3973  -10.0444   22.3041 C   0  0  1  0  0  0  0  0  0  0  0  0
    4.8136  -11.4244   21.8229 C   0  0  0  0  0  0  0  0  0  0  0  0
  1  2  1  0
  2  3  2  0
  3  4  1  0
  4  5  1  0
  5  6  1  0
  5  7  1  0
  4  8  1  0
  8  9  2  0
  9 10  1  0
 10 11  2  0
 10 12  1  0
 13 12  1  1
 13 14  1  0
 14 15  1  0
 15 16  1  0
 16 17  1  0
 17 18  1  1
  9  2  1  0
 17 13  1  0
M  END
>  <inchikey>  (1160) 
IFPFWVOFRIVMMN-UHFFFAOYSA-N

>  <tags>  (1160) 
fragmenstein_placed,CpKRS_FrAncestor_bulkdock_iter2

>  <ref_pdb>  (1160) 
x0502c

>  <energy_score>  (1160) 
-18.036214

>  <distance_score>  (1160) 
0.65572

>  <HIPPO Pose ID>  (1160) 
58462

>  <ref_mols>  (1160) 
x0421b

>  <smiles>  (1160) 
Cc1nn(C(C)C)cc1C(=O)N[C@H]1CCC[C@H]1C

>  <HIPPO Compound ID>  (1160) 
37671

>  <alias>  (1160) 
IFPFWVOFRIVMMN-MFKMUULPSA-N-P12

>  <subsites>  (1160) 


>  <placement_batch>  (1160) 
CpKRS_FrAncestor_bulkdock_iter2

>  <name>  (1160) 
IFPFWVOFRIVMMN-MFKMUULPSA-N-P12

$$$$
FFTRFFGIAPFCQR-CMPLNLGQSA-N-P12
     RDKit          3D

 18 19  0  0  0  0  0  0  0  0999 V2000
    3.7959  -15.6104   26.8636 C   0  0  0  0  0  0  0  0  0  0  0  0
    2.8451  -14.6692   26.2130 C   0  0  0  0  0  0  0  0  0  0  0  0
    1.5216  -14.7500   26.4455 N   0  0  0  0  0  0  0  0  0  0  0  0
    1.0023  -13.7384   25.7257 N   0  0  0  0  0  0  0  0  0  0  0  0
   -0.4178  -13.4236   25.6943 C   0  0  0  0  0  0  0  0  0  0  0  0
   -1.1317  -13.6987   26.9989 C   0  0  0  0  0  0  0  0  0  0  0  0
   -1.1005  -14.1108   24.5124 C   0  0  0  0  0  0  0  0  0  0  0  0
    1.9272  -13.0808   24.9813 C   0  0  0  0  0  0  0  0  0  0  0  0
    3.1542  -13.6082   25.3224 C   0  0  0  0  0  0  0  0  0  0  0  0
    4.4409  -13.1398   24.8339 C   0  0  0  0  0  0  0  0  0  0  0  0
    5.3468  -13.8588   24.6999 O   0  0  0  0  0  0  0  0  0  0  0  0
    4.3210  -11.6274   24.5749 N   0  0  0  0  0  0  0  0  0  0  0  0
    5.2484  -10.7122   24.0154 C   0  0  2  0  0  0  0  0  0  0  0  0
    4.9953   -9.2655   24.4124 C   0  0  0  0  0  0  0  0  0  0  0  0
    5.8737   -8.5215   23.4292 C   0  0  0  0  0  0  0  0  0  0  0  0
    5.7433   -9.3280   22.1331 C   0  0  2  0  0  0  0  0  0  0  0  0
    4.8356   -8.6181   21.1723 C   0  0  0  0  0  0  0  0  0  0  0  0
    5.1693  -10.6930   22.5031 C   0  0  0  0  0  0  0  0  0  0  0  0
  1  2  1  0
  2  3  2  0
  3  4  1  0
  4  5  1  0
  5  6  1  0
  5  7  1  0
  4  8  1  0
  8  9  2  0
  9 10  1  0
 10 11  2  0
 10 12  1  0
 13 12  1  1
 13 14  1  0
 14 15  1  0
 15 16  1  0
 16 17  1  6
 16 18  1  0
  9  2  1  0
 18 13  1  0
M  END
>  <inchikey>  (1161) 
FFTRFFGIAPFCQR-UHFFFAOYSA-N

>  <tags>  (1161) 
fragmenstein_placed,CpKRS_FrAncestor_bulkdock_iter2

>  <ref_pdb>  (1161) 
x0502c

>  <energy_score>  (1161) 
-21.420162

>  <distance_score>  (1161) 
0.597531

>  <HIPPO Pose ID>  (1161) 
58466

>  <ref_mols>  (1161) 
x0421b

>  <smiles>  (1161) 
Cc1nn(C(C)C)cc1C(=O)N[C@@H]1CC[C@H](C)C1

>  <HIPPO Compound ID>  (1161) 
37674

>  <alias>  (1161) 
FFTRFFGIAPFCQR-CMPLNLGQSA-N-P12

>  <subsites>  (1161) 


>  <placement_batch>  (1161) 
CpKRS_FrAncestor_bulkdock_iter2

>  <name>  (1161) 
FFTRFFGIAPFCQR-CMPLNLGQSA-N-P12

$$$$
KAOABJWPSBUKMZ-QWRGUYRKSA-N-P12
     RDKit          3D

 18 19  0  0  0  0  0  0  0  0999 V2000
    4.0232  -15.5630   26.8941 C   0  0  0  0  0  0  0  0  0  0  0  0
    2.9192  -14.7119   26.3733 C   0  0  0  0  0  0  0  0  0  0  0  0
    1.6561  -14.9194   26.7776 N   0  0  0  0  0  0  0  0  0  0  0  0
    0.9348  -14.0098   26.1006 N   0  0  0  0  0  0  0  0  0  0  0  0
   -0.5217  -14.0552   26.1393 C   0  0  0  0  0  0  0  0  0  0  0  0
   -1.1610  -12.7951   26.7037 C   0  0  0  0  0  0  0  0  0  0  0  0
   -1.1027  -14.3717   24.7574 C   0  0  0  0  0  0  0  0  0  0  0  0
    1.6962  -13.2229   25.2897 C   0  0  0  0  0  0  0  0  0  0  0  0
    3.0060  -13.6423   25.4385 C   0  0  0  0  0  0  0  0  0  0  0  0
    4.2007  -13.1199   24.7719 C   0  0  0  0  0  0  0  0  0  0  0  0
    5.1446  -13.7867   24.6355 O   0  0  0  0  0  0  0  0  0  0  0  0
    3.9399  -11.6650   24.3517 N   0  0  0  0  0  0  0  0  0  0  0  0
    4.8092  -10.7012   23.7650 C   0  0  1  0  0  0  0  0  0  0  0  0
    5.0394  -10.8970   22.2756 C   0  0  0  0  0  0  0  0  0  0  0  0
    5.5402   -9.5310   21.8017 C   0  0  0  0  0  0  0  0  0  0  0  0
    5.1395   -8.5289   22.8877 C   0  0  2  0  0  0  0  0  0  0  0  0
    6.5083   -7.9189   23.8386 Cl  0  0  0  0  0  0  0  0  0  0  0  0
    4.2247   -9.2983   23.8219 C   0  0  0  0  0  0  0  0  0  0  0  0
  1  2  1  0
  2  3  2  0
  3  4  1  0
  4  5  1  0
  5  6  1  0
  5  7  1  0
  4  8  1  0
  8  9  2  0
  9 10  1  0
 10 11  2  0
 10 12  1  0
 13 12  1  6
 13 14  1  0
 14 15  1  0
 15 16  1  0
 16 17  1  1
 16 18  1  0
  9  2  1  0
 18 13  1  0
M  END
>  <inchikey>  (1162) 
KAOABJWPSBUKMZ-UHFFFAOYSA-N

>  <tags>  (1162) 
fragmenstein_placed,CpKRS_FrAncestor_bulkdock_iter2

>  <ref_pdb>  (1162) 
x0502c

>  <energy_score>  (1162) 
-27.899683

>  <distance_score>  (1162) 
0.528522

>  <HIPPO Pose ID>  (1162) 
58470

>  <ref_mols>  (1162) 
x0421b

>  <smiles>  (1162) 
Cc1nn(C(C)C)cc1C(=O)N[C@H]1CC[C@H](Cl)C1

>  <HIPPO Compound ID>  (1162) 
37676

>  <alias>  (1162) 
KAOABJWPSBUKMZ-QWRGUYRKSA-N-P12

>  <subsites>  (1162) 


>  <placement_batch>  (1162) 
CpKRS_FrAncestor_bulkdock_iter2

>  <name>  (1162) 
KAOABJWPSBUKMZ-QWRGUYRKSA-N-P12

$$$$
BWDTVHBSVWCLFM-UHFFFAOYSA-N-P44
     RDKit          3D

 19 20  0  0  0  0  0  0  0  0999 V2000
   -9.6905  -14.4298   49.1119 C   0  0  0  0  0  0  0  0  0  0  0  0
   -9.2833  -13.2113   48.3656 C   0  0  0  0  0  0  0  0  0  0  0  0
   -8.2759  -12.4773   48.8544 N   0  0  0  0  0  0  0  0  0  0  0  0
   -8.1864  -11.4176   48.0282 N   0  0  0  0  0  0  0  0  0  0  0  0
   -7.2724  -10.3112   48.3704 C   0  0  0  0  0  0  0  0  0  0  0  0
   -5.9423  -10.8526   48.9383 C   0  0  0  0  0  0  0  0  0  0  0  0
   -7.9460   -9.4282   49.4382 C   0  0  0  0  0  0  0  0  0  0  0  0
   -6.9434   -9.4325   47.1456 C   0  0  0  0  0  0  0  0  0  0  0  0
   -9.1191  -11.4594   47.0320 C   0  0  0  0  0  0  0  0  0  0  0  0
   -9.8601  -12.6164   47.2068 C   0  0  0  0  0  0  0  0  0  0  0  0
  -11.0332  -12.9662   46.3956 C   0  0  0  0  0  0  0  0  0  0  0  0
  -11.7159  -12.1053   46.0088 O   0  0  0  0  0  0  0  0  0  0  0  0
  -11.1857  -14.4909   46.2714 N   0  0  0  0  0  0  0  0  0  0  0  0
  -12.2596  -15.2833   45.7271 C   0  0  0  0  0  0  0  0  0  0  0  0
  -12.2248  -15.3255   44.1928 C   0  0  0  0  0  0  0  0  0  0  0  0
  -13.6048  -15.5910   43.5877 C   0  0  0  0  0  0  0  0  0  0  0  0
  -13.7910  -17.0933   43.7238 C   0  0  0  0  0  0  0  0  0  0  0  0
  -12.3960  -17.6806   43.5513 C   0  0  0  0  0  0  0  0  0  0  0  0
  -11.4141  -16.5153   43.6742 C   0  0  0  0  0  0  0  0  0  0  0  0
  1  2  1  0
  2  3  2  0
  3  4  1  0
  4  5  1  0
  5  6  1  0
  5  7  1  0
  5  8  1  0
  4  9  1  0
  9 10  2  0
 10 11  1  0
 11 12  2  0
 11 13  1  0
 13 14  1  0
 14 15  1  0
 15 16  1  0
 16 17  1  0
 17 18  1  0
 18 19  1  0
 10  2  1  0
 19 15  1  0
M  END
>  <inchikey>  (1163) 
BWDTVHBSVWCLFM-UHFFFAOYSA-N

>  <tags>  (1163) 
fragmenstein_placed,CpKRS_FrAncestor_bulkdock_iter2

>  <ref_pdb>  (1163) 
x0502c

>  <energy_score>  (1163) 
-34.088583

>  <distance_score>  (1163) 
0.327604

>  <HIPPO Pose ID>  (1163) 
58486

>  <ref_mols>  (1163) 
x0502b

>  <smiles>  (1163) 
Cc1nn(C(C)(C)C)cc1C(=O)NCC1CCCC1

>  <HIPPO Compound ID>  (1163) 
37680

>  <alias>  (1163) 
BWDTVHBSVWCLFM-UHFFFAOYSA-N-P44

>  <subsites>  (1163) 


>  <placement_batch>  (1163) 
CpKRS_FrAncestor_bulkdock_iter2

>  <name>  (1163) 
BWDTVHBSVWCLFM-UHFFFAOYSA-N-P44

$$$$
KGLCUBZDPQVOIM-UHFFFAOYSA-N-P48
     RDKit          3D

 19 19  0  0  0  0  0  0  0  0999 V2000
    4.6199  -15.8212   26.3836 C   0  0  0  0  0  0  0  0  0  0  0  0
    3.4750  -14.8886   26.2614 C   0  0  0  0  0  0  0  0  0  0  0  0
    2.3472  -15.1349   26.9413 N   0  0  0  0  0  0  0  0  0  0  0  0
    1.5822  -14.0716   26.6719 N   0  0  0  0  0  0  0  0  0  0  0  0
    0.3834  -13.7811   27.4360 C   0  0  0  0  0  0  0  0  0  0  0  0
   -0.8646  -14.2847   26.7267 C   0  0  0  0  0  0  0  0  0  0  0  0
    0.5525  -14.2085   28.8915 C   0  0  0  0  0  0  0  0  0  0  0  0
    2.1142  -13.2279   25.7474 C   0  0  0  0  0  0  0  0  0  0  0  0
    3.3902  -13.6862   25.4948 C   0  0  0  0  0  0  0  0  0  0  0  0
    4.4156  -13.0884   24.6413 C   0  0  0  0  0  0  0  0  0  0  0  0
    5.3817  -13.6922   24.4024 O   0  0  0  0  0  0  0  0  0  0  0  0
    3.9593  -11.7004   24.1521 N   0  0  0  0  0  0  0  0  0  0  0  0
    4.6504  -10.7089   23.3287 C   0  0  0  0  0  0  0  0  0  0  0  0
    5.8213  -10.1214   24.1099 C   0  0  0  0  0  0  0  0  0  0  0  0
    5.0954  -11.3879   22.0282 C   0  0  0  0  0  0  0  0  0  0  0  0
    3.7688   -9.5179   22.9589 C   0  0  0  0  0  0  0  0  0  0  0  0
    3.5494   -8.7112   24.0252 F   0  0  0  0  0  0  0  0  0  0  0  0
    4.3325   -8.7497   21.9999 F   0  0  0  0  0  0  0  0  0  0  0  0
    2.5411   -9.8739   22.5261 F   0  0  0  0  0  0  0  0  0  0  0  0
  1  2  1  0
  2  3  2  0
  3  4  1  0
  4  5  1  0
  5  6  1  0
  5  7  1  0
  4  8  1  0
  8  9  2  0
  9 10  1  0
 10 11  2  0
 10 12  1  0
 12 13  1  0
 13 14  1  0
 13 15  1  0
 13 16  1  0
 16 17  1  0
 16 18  1  0
 16 19  1  0
  9  2  1  0
M  END
>  <inchikey>  (1164) 
KGLCUBZDPQVOIM-UHFFFAOYSA-N

>  <tags>  (1164) 
fragmenstein_placed,CpKRS_FrAncestor_bulkdock_iter2

>  <ref_pdb>  (1164) 
x0502c

>  <energy_score>  (1164) 
-18.632032

>  <distance_score>  (1164) 
0.889637

>  <HIPPO Pose ID>  (1164) 
58488

>  <ref_mols>  (1164) 
x0504a

>  <smiles>  (1164) 
Cc1nn(C(C)C)cc1C(=O)NC(C)(C)C(F)(F)F

>  <HIPPO Compound ID>  (1164) 
37681

>  <alias>  (1164) 
KGLCUBZDPQVOIM-UHFFFAOYSA-N-P48

>  <subsites>  (1164) 


>  <placement_batch>  (1164) 
CpKRS_FrAncestor_bulkdock_iter2

>  <name>  (1164) 
KGLCUBZDPQVOIM-UHFFFAOYSA-N-P48

$$$$
VYMSYEQGNSRQDB-UHFFFAOYSA-N-P48
     RDKit          3D

 17 17  0  0  0  0  0  0  0  0999 V2000
    4.5622  -16.0901   26.3585 C   0  0  0  0  0  0  0  0  0  0  0  0
    3.4924  -15.0777   26.2240 C   0  0  0  0  0  0  0  0  0  0  0  0
    2.3377  -15.2382   26.8834 N   0  0  0  0  0  0  0  0  0  0  0  0
    1.6757  -14.1002   26.6371 N   0  0  0  0  0  0  0  0  0  0  0  0
    0.4833  -13.7462   27.3853 C   0  0  0  0  0  0  0  0  0  0  0  0
    0.6025  -14.1828   28.8432 C   0  0  0  0  0  0  0  0  0  0  0  0
   -0.7785  -14.2166   26.6761 C   0  0  0  0  0  0  0  0  0  0  0  0
    2.2965  -13.2854   25.7407 C   0  0  0  0  0  0  0  0  0  0  0  0
    3.5071  -13.8829   25.4531 C   0  0  0  0  0  0  0  0  0  0  0  0
    4.5843  -13.3515   24.6267 C   0  0  0  0  0  0  0  0  0  0  0  0
    5.6910  -13.5861   24.8950 O   0  0  0  0  0  0  0  0  0  0  0  0
    3.9952  -12.4577   23.5264 N   0  0  0  0  0  0  0  0  0  0  0  0
    4.6443  -11.7334   22.4571 C   0  0  0  0  0  0  0  0  0  0  0  0
    4.9748  -10.2836   22.8050 C   0  0  0  0  0  0  0  0  0  0  0  0
    5.9163  -10.1781   23.7637 F   0  0  0  0  0  0  0  0  0  0  0  0
    3.8794   -9.6145   23.2474 F   0  0  0  0  0  0  0  0  0  0  0  0
    5.4156   -9.6213   21.7112 F   0  0  0  0  0  0  0  0  0  0  0  0
  1  2  1  0
  2  3  2  0
  3  4  1  0
  4  5  1  0
  5  6  1  0
  5  7  1  0
  4  8  1  0
  8  9  2  0
  9 10  1  0
 10 11  2  0
 10 12  1  0
 12 13  1  0
 13 14  1  0
 14 15  1  0
 14 16  1  0
 14 17  1  0
  9  2  1  0
M  END
>  <inchikey>  (1165) 
VYMSYEQGNSRQDB-UHFFFAOYSA-N

>  <tags>  (1165) 
fragmenstein_placed,CpKRS_FrAncestor_bulkdock_iter2

>  <ref_pdb>  (1165) 
x0502c

>  <energy_score>  (1165) 
-19.145323

>  <distance_score>  (1165) 
0.716834

>  <HIPPO Pose ID>  (1165) 
58494

>  <ref_mols>  (1165) 
x0504a

>  <smiles>  (1165) 
Cc1nn(C(C)C)cc1C(=O)NCC(F)(F)F

>  <HIPPO Compound ID>  (1165) 
37683

>  <alias>  (1165) 
VYMSYEQGNSRQDB-UHFFFAOYSA-N-P48

>  <subsites>  (1165) 


>  <placement_batch>  (1165) 
CpKRS_FrAncestor_bulkdock_iter2

>  <name>  (1165) 
VYMSYEQGNSRQDB-UHFFFAOYSA-N-P48

$$$$
CJBGEAZMTLXLOI-MRVPVSSYSA-N-P48
     RDKit          3D

 18 18  0  0  0  0  0  0  0  0999 V2000
    4.7998  -15.7854   26.2739 C   0  0  0  0  0  0  0  0  0  0  0  0
    3.6432  -14.8616   26.3025 C   0  0  0  0  0  0  0  0  0  0  0  0
    2.5625  -15.1763   27.0278 N   0  0  0  0  0  0  0  0  0  0  0  0
    1.7715  -14.1039   26.8933 N   0  0  0  0  0  0  0  0  0  0  0  0
    0.5070  -14.0136   27.6012 C   0  0  0  0  0  0  0  0  0  0  0  0
    0.6592  -14.5264   29.0316 C   0  0  0  0  0  0  0  0  0  0  0  0
   -0.5839  -14.6186   26.7257 C   0  0  0  0  0  0  0  0  0  0  0  0
    2.2492  -13.1644   26.0414 C   0  0  0  0  0  0  0  0  0  0  0  0
    3.4832  -13.6190   25.6270 C   0  0  0  0  0  0  0  0  0  0  0  0
    4.4107  -12.9288   24.7451 C   0  0  0  0  0  0  0  0  0  0  0  0
    5.5528  -13.1321   24.8168 O   0  0  0  0  0  0  0  0  0  0  0  0
    3.6186  -12.0256   23.7884 N   0  0  0  0  0  0  0  0  0  0  0  0
    4.0758  -11.1032   22.7722 C   0  0  2  0  0  0  0  0  0  0  0  0
    4.8099  -11.8626   21.6904 C   0  0  0  0  0  0  0  0  0  0  0  0
    4.9068   -9.9225   23.2618 C   0  0  0  0  0  0  0  0  0  0  0  0
    6.0178  -10.2699   23.9291 F   0  0  0  0  0  0  0  0  0  0  0  0
    5.2683   -9.1461   22.2097 F   0  0  0  0  0  0  0  0  0  0  0  0
    4.1640   -9.1344   24.0783 F   0  0  0  0  0  0  0  0  0  0  0  0
  1  2  1  0
  2  3  2  0
  3  4  1  0
  4  5  1  0
  5  6  1  0
  5  7  1  0
  4  8  1  0
  8  9  2  0
  9 10  1  0
 10 11  2  0
 10 12  1  0
 12 13  1  0
 13 14  1  6
 13 15  1  0
 15 16  1  0
 15 17  1  0
 15 18  1  0
  9  2  1  0
M  END
>  <inchikey>  (1166) 
CJBGEAZMTLXLOI-UHFFFAOYSA-N

>  <tags>  (1166) 
fragmenstein_placed,CpKRS_FrAncestor_bulkdock_iter2

>  <ref_pdb>  (1166) 
x0502c

>  <energy_score>  (1166) 
-17.018723

>  <distance_score>  (1166) 
0.670408

>  <HIPPO Pose ID>  (1166) 
58497

>  <ref_mols>  (1166) 
x0504a

>  <smiles>  (1166) 
Cc1nn(C(C)C)cc1C(=O)N[C@H](C)C(F)(F)F

>  <HIPPO Compound ID>  (1166) 
37682

>  <alias>  (1166) 
CJBGEAZMTLXLOI-MRVPVSSYSA-N-P48

>  <subsites>  (1166) 


>  <placement_batch>  (1166) 
CpKRS_FrAncestor_bulkdock_iter2

>  <name>  (1166) 
CJBGEAZMTLXLOI-MRVPVSSYSA-N-P48

$$$$
FPNTVDAVGDITJK-MFKMUULPSA-N-P11
     RDKit          3D

 19 20  0  0  0  0  0  0  0  0999 V2000
    4.2659  -15.5562   27.2294 C   0  0  0  0  0  0  0  0  0  0  0  0
    3.1858  -14.7345   26.6236 C   0  0  0  0  0  0  0  0  0  0  0  0
    1.9262  -14.8927   27.0457 N   0  0  0  0  0  0  0  0  0  0  0  0
    1.1937  -14.1576   26.1947 N   0  0  0  0  0  0  0  0  0  0  0  0
   -0.2530  -14.2502   26.3326 C   0  0  0  0  0  0  0  0  0  0  0  0
   -0.9518  -12.9056   26.5151 C   0  0  0  0  0  0  0  0  0  0  0  0
   -0.9143  -15.0829   25.2365 C   0  0  0  0  0  0  0  0  0  0  0  0
    1.9468  -13.4427   25.2964 C   0  0  0  0  0  0  0  0  0  0  0  0
    1.3621  -12.6331   24.1909 C   0  0  0  0  0  0  0  0  0  0  0  0
    3.2781  -13.7350   25.6142 C   0  0  0  0  0  0  0  0  0  0  0  0
    4.5151  -13.2101   25.0102 C   0  0  0  0  0  0  0  0  0  0  0  0
    5.4656  -13.8745   24.9346 O   0  0  0  0  0  0  0  0  0  0  0  0
    4.2778  -11.7620   24.5685 N   0  0  0  0  0  0  0  0  0  0  0  0
    5.1248  -10.8577   23.8579 C   0  0  1  0  0  0  0  0  0  0  0  0
    4.9441  -10.9592   22.3457 C   0  0  0  0  0  0  0  0  0  0  0  0
    5.2901   -9.5765   21.7988 C   0  0  0  0  0  0  0  0  0  0  0  0
    5.5314   -8.6757   23.0075 C   0  0  0  0  0  0  0  0  0  0  0  0
    4.8795   -9.3859   24.1932 C   0  0  1  0  0  0  0  0  0  0  0  0
    3.4076   -9.0127   24.3497 C   0  0  0  0  0  0  0  0  0  0  0  0
  1  2  1  0
  2  3  2  0
  3  4  1  0
  4  5  1  0
  5  6  1  0
  5  7  1  0
  4  8  1  0
  8  9  1  0
  8 10  2  0
 10 11  1  0
 11 12  2  0
 11 13  1  0
 14 13  1  1
 14 15  1  0
 15 16  1  0
 16 17  1  0
 17 18  1  0
 18 19  1  6
 10  2  1  0
 18 14  1  0
M  END
>  <inchikey>  (1167) 
FPNTVDAVGDITJK-UHFFFAOYSA-N

>  <tags>  (1167) 
fragmenstein_placed,CpKRS_FrAncestor_bulkdock_iter2

>  <ref_pdb>  (1167) 
x0502c

>  <energy_score>  (1167) 
-26.922698

>  <distance_score>  (1167) 
0.568729

>  <HIPPO Pose ID>  (1167) 
58503

>  <ref_mols>  (1167) 
x0421a

>  <smiles>  (1167) 
Cc1nn(C(C)C)c(C)c1C(=O)N[C@H]1CCC[C@H]1C

>  <HIPPO Compound ID>  (1167) 
37677

>  <alias>  (1167) 
FPNTVDAVGDITJK-MFKMUULPSA-N-P11

>  <subsites>  (1167) 


>  <placement_batch>  (1167) 
CpKRS_FrAncestor_bulkdock_iter2

>  <name>  (1167) 
FPNTVDAVGDITJK-MFKMUULPSA-N-P11

$$$$
NLEAKYVRAQLLBX-UHFFFAOYSA-N-P48
     RDKit          3D

 18 18  0  0  0  0  0  0  0  0999 V2000
    4.6543  -15.8769   26.4844 C   0  0  0  0  0  0  0  0  0  0  0  0
    3.4703  -15.0362   26.1939 C   0  0  0  0  0  0  0  0  0  0  0  0
    2.3988  -15.1126   26.9863 N   0  0  0  0  0  0  0  0  0  0  0  0
    1.5728  -14.1632   26.5170 N   0  0  0  0  0  0  0  0  0  0  0  0
    0.4185  -13.7554   27.3092 C   0  0  0  0  0  0  0  0  0  0  0  0
   -0.8959  -14.3015   26.7568 C   0  0  0  0  0  0  0  0  0  0  0  0
    0.6035  -14.0885   28.7933 C   0  0  0  0  0  0  0  0  0  0  0  0
    2.0114  -13.5859   25.3474 C   0  0  0  0  0  0  0  0  0  0  0  0
    1.1884  -12.6335   24.5486 C   0  0  0  0  0  0  0  0  0  0  0  0
    3.2908  -14.0995   25.1394 C   0  0  0  0  0  0  0  0  0  0  0  0
    4.2337  -13.8069   24.0533 C   0  0  0  0  0  0  0  0  0  0  0  0
    4.9198  -14.6478   23.6361 O   0  0  0  0  0  0  0  0  0  0  0  0
    4.0807  -12.3436   23.6222 N   0  0  0  0  0  0  0  0  0  0  0  0
    4.6742  -11.6217   22.5168 C   0  0  0  0  0  0  0  0  0  0  0  0
    4.5802  -10.1064   22.6331 C   0  0  0  0  0  0  0  0  0  0  0  0
    5.1834   -9.4917   21.5948 F   0  0  0  0  0  0  0  0  0  0  0  0
    3.2883   -9.6847   22.6531 F   0  0  0  0  0  0  0  0  0  0  0  0
    5.1484   -9.6489   23.7713 F   0  0  0  0  0  0  0  0  0  0  0  0
  1  2  1  0
  2  3  2  0
  3  4  1  0
  4  5  1  0
  5  6  1  0
  5  7  1  0
  4  8  1  0
  8  9  1  0
  8 10  2  0
 10 11  1  0
 11 12  2  0
 11 13  1  0
 13 14  1  0
 14 15  1  0
 15 16  1  0
 15 17  1  0
 15 18  1  0
 10  2  1  0
M  END
>  <inchikey>  (1168) 
NLEAKYVRAQLLBX-UHFFFAOYSA-N

>  <tags>  (1168) 
fragmenstein_placed,CpKRS_FrAncestor_bulkdock_iter2

>  <ref_pdb>  (1168) 
x0502c

>  <energy_score>  (1168) 
-11.578051

>  <distance_score>  (1168) 
0.85834

>  <HIPPO Pose ID>  (1168) 
58510

>  <ref_mols>  (1168) 
x0504a

>  <smiles>  (1168) 
Cc1nn(C(C)C)c(C)c1C(=O)NCC(F)(F)F

>  <HIPPO Compound ID>  (1168) 
37685

>  <alias>  (1168) 
NLEAKYVRAQLLBX-UHFFFAOYSA-N-P48

>  <subsites>  (1168) 


>  <placement_batch>  (1168) 
CpKRS_FrAncestor_bulkdock_iter2

>  <name>  (1168) 
NLEAKYVRAQLLBX-UHFFFAOYSA-N-P48

$$$$
MDIODSOKNFANJA-SECBINFHSA-N-P48
     RDKit          3D

 19 19  0  0  0  0  0  0  0  0999 V2000
    4.8505  -15.7497   26.5380 C   0  0  0  0  0  0  0  0  0  0  0  0
    3.6151  -14.9529   26.3698 C   0  0  0  0  0  0  0  0  0  0  0  0
    2.5256  -15.2825   27.0743 N   0  0  0  0  0  0  0  0  0  0  0  0
    1.6569  -14.3017   26.7936 N   0  0  0  0  0  0  0  0  0  0  0  0
    0.5296  -14.0353   27.6738 C   0  0  0  0  0  0  0  0  0  0  0  0
    0.7265  -14.5673   29.0950 C   0  0  0  0  0  0  0  0  0  0  0  0
   -0.7973  -14.3781   27.0010 C   0  0  0  0  0  0  0  0  0  0  0  0
    2.0523  -13.4933   25.7572 C   0  0  0  0  0  0  0  0  0  0  0  0
    1.1849  -12.4247   25.1835 C   0  0  0  0  0  0  0  0  0  0  0  0
    3.3805  -13.8368   25.5223 C   0  0  0  0  0  0  0  0  0  0  0  0
    4.3261  -13.1209   24.6674 C   0  0  0  0  0  0  0  0  0  0  0  0
    5.4251  -12.9540   25.0045 O   0  0  0  0  0  0  0  0  0  0  0  0
    3.5795  -12.6132   23.4320 N   0  0  0  0  0  0  0  0  0  0  0  0
    3.9980  -11.7109   22.3909 C   0  0  2  0  0  0  0  0  0  0  0  0
    5.3455  -12.0997   21.8524 C   0  0  0  0  0  0  0  0  0  0  0  0
    4.0285  -10.2236   22.7906 C   0  0  0  0  0  0  0  0  0  0  0  0
    4.5584   -9.4641   21.7992 F   0  0  0  0  0  0  0  0  0  0  0  0
    2.7734   -9.7428   23.0018 F   0  0  0  0  0  0  0  0  0  0  0  0
    4.7433   -9.9712   23.9056 F   0  0  0  0  0  0  0  0  0  0  0  0
  1  2  1  0
  2  3  2  0
  3  4  1  0
  4  5  1  0
  5  6  1  0
  5  7  1  0
  4  8  1  0
  8  9  1  0
  8 10  2  0
 10 11  1  0
 11 12  2  0
 11 13  1  0
 13 14  1  0
 14 15  1  1
 14 16  1  0
 16 17  1  0
 16 18  1  0
 16 19  1  0
 10  2  1  0
M  END
>  <inchikey>  (1169) 
MDIODSOKNFANJA-UHFFFAOYSA-N

>  <tags>  (1169) 
fragmenstein_placed,CpKRS_FrAncestor_bulkdock_iter2

>  <ref_pdb>  (1169) 
x0502c

>  <energy_score>  (1169) 
-4.10918

>  <distance_score>  (1169) 
0.634333

>  <HIPPO Pose ID>  (1169) 
58513

>  <ref_mols>  (1169) 
x0504a

>  <smiles>  (1169) 
Cc1nn(C(C)C)c(C)c1C(=O)N[C@H](C)C(F)(F)F

>  <HIPPO Compound ID>  (1169) 
37684

>  <alias>  (1169) 
MDIODSOKNFANJA-SECBINFHSA-N-P48

>  <subsites>  (1169) 


>  <placement_batch>  (1169) 
CpKRS_FrAncestor_bulkdock_iter2

>  <name>  (1169) 
MDIODSOKNFANJA-SECBINFHSA-N-P48

$$$$
JPUZMIUAEFFUAQ-UHFFFAOYSA-N-P15
     RDKit          3D

 19 20  0  0  0  0  0  0  0  0999 V2000
    4.0973  -24.2736   16.6307 C   0  0  0  0  0  0  0  0  0  0  0  0
    3.4579  -25.0424   17.7088 C   0  0  0  0  0  0  0  0  0  0  0  0
    4.0317  -25.0502   18.9238 N   0  0  0  0  0  0  0  0  0  0  0  0
    3.1912  -25.7968   19.6652 N   0  0  0  0  0  0  0  0  0  0  0  0
    3.4479  -25.9623   21.0727 C   0  0  0  0  0  0  0  0  0  0  0  0
    2.1658  -26.3028   18.9351 C   0  0  0  0  0  0  0  0  0  0  0  0
    1.0094  -27.3304   19.6505 Cl  0  0  0  0  0  0  0  0  0  0  0  0
    2.2760  -25.8349   17.6466 C   0  0  0  0  0  0  0  0  0  0  0  0
    1.3520  -26.1909   16.5428 C   0  0  0  0  0  0  0  0  0  0  0  0
    1.4110  -25.3402   15.3909 N   0  0  0  0  0  0  0  0  0  0  0  0
    2.0224  -25.5818   13.9998 C   0  0  0  0  0  0  0  0  0  0  0  0
    2.6435  -26.4816   13.5928 O   0  0  0  0  0  0  0  0  0  0  0  0
    1.6623  -24.5135   12.9904 C   0  0  0  0  0  0  0  0  0  0  0  0
    2.1088  -24.6973   11.6682 C   0  0  0  0  0  0  0  0  0  0  0  0
    1.7223  -23.8298   10.6439 C   0  0  0  0  0  0  0  0  0  0  0  0
    0.9329  -22.7195   10.9253 C   0  0  0  0  0  0  0  0  0  0  0  0
    0.4867  -22.5169   12.2277 C   0  0  0  0  0  0  0  0  0  0  0  0
    0.8313  -23.4197   13.2404 C   0  0  0  0  0  0  0  0  0  0  0  0
    0.3058  -23.2127   14.4567 F   0  0  0  0  0  0  0  0  0  0  0  0
  1  2  1  0
  2  3  2  0
  3  4  1  0
  4  5  1  0
  4  6  1  0
  6  7  1  0
  6  8  2  0
  8  9  1  0
  9 10  1  0
 10 11  1  0
 11 12  2  0
 11 13  1  0
 13 14  2  0
 14 15  1  0
 15 16  2  0
 16 17  1  0
 17 18  2  0
 18 19  1  0
  8  2  1  0
 18 13  1  0
M  END
>  <inchikey>  (1170) 
JPUZMIUAEFFUAQ-UHFFFAOYSA-N

>  <tags>  (1170) 
fragmenstein_placed,CpKRS_FrAncestor_bulkdock_iter2

>  <ref_pdb>  (1170) 
x0502c

>  <energy_score>  (1170) 
-6.43884

>  <distance_score>  (1170) 
0.945837

>  <HIPPO Pose ID>  (1170) 
58523

>  <ref_mols>  (1170) 
x0426b

>  <smiles>  (1170) 
Cc1nn(C)c(Cl)c1CNC(=O)c1ccccc1F

>  <HIPPO Compound ID>  (1170) 
37687

>  <alias>  (1170) 
JPUZMIUAEFFUAQ-UHFFFAOYSA-N-P15

>  <subsites>  (1170) 


>  <placement_batch>  (1170) 
CpKRS_FrAncestor_bulkdock_iter2

>  <name>  (1170) 
JPUZMIUAEFFUAQ-UHFFFAOYSA-N-P15

$$$$
AXQNAPPBYYTDRY-UHFFFAOYSA-N-P44
     RDKit          3D

 20 21  0  0  0  0  0  0  0  0999 V2000
   -8.9462  -10.5600   45.8470 C   0  0  0  0  0  0  0  0  0  0  0  0
   -8.9023  -11.5919   46.9141 C   0  0  0  0  0  0  0  0  0  0  0  0
   -7.8964  -11.6007   47.7950 N   0  0  0  0  0  0  0  0  0  0  0  0
   -8.1558  -12.6553   48.5876 N   0  0  0  0  0  0  0  0  0  0  0  0
   -7.2291  -12.9399   49.6627 C   0  0  0  0  0  0  0  0  0  0  0  0
   -9.3235  -13.2988   48.2742 C   0  0  0  0  0  0  0  0  0  0  0  0
   -9.8622  -14.4156   49.0712 C   0  0  0  0  0  0  0  0  0  0  0  0
  -11.0549  -14.0885   49.6297 F   0  0  0  0  0  0  0  0  0  0  0  0
  -10.0833  -15.5118   48.3020 F   0  0  0  0  0  0  0  0  0  0  0  0
   -9.0590  -14.8107   50.0884 F   0  0  0  0  0  0  0  0  0  0  0  0
   -9.8373  -12.6367   47.1612 C   0  0  0  0  0  0  0  0  0  0  0  0
  -11.1038  -12.8526   46.4461 C   0  0  0  0  0  0  0  0  0  0  0  0
  -11.6971  -11.9202   46.0810 O   0  0  0  0  0  0  0  0  0  0  0  0
  -11.4477  -14.3475   46.3614 N   0  0  0  0  0  0  0  0  0  0  0  0
  -12.5525  -15.0199   45.7238 C   0  0  0  0  0  0  0  0  0  0  0  0
  -12.3321  -15.2047   44.2161 C   0  0  0  0  0  0  0  0  0  0  0  0
  -13.6295  -15.5543   43.4845 C   0  0  0  0  0  0  0  0  0  0  0  0
  -13.7870  -17.0497   43.7034 C   0  0  0  0  0  0  0  0  0  0  0  0
  -12.3675  -17.5951   43.6461 C   0  0  0  0  0  0  0  0  0  0  0  0
  -11.4374  -16.4102   43.9095 C   0  0  0  0  0  0  0  0  0  0  0  0
  1  2  1  0
  2  3  2  0
  3  4  1  0
  4  5  1  0
  4  6  1  0
  6  7  1  0
  7  8  1  0
  7  9  1  0
  7 10  1  0
  6 11  2  0
 11 12  1  0
 12 13  2  0
 12 14  1  0
 14 15  1  0
 15 16  1  0
 16 17  1  0
 17 18  1  0
 18 19  1  0
 19 20  1  0
 11  2  1  0
 20 16  1  0
M  END
>  <inchikey>  (1171) 
AXQNAPPBYYTDRY-UHFFFAOYSA-N

>  <tags>  (1171) 
fragmenstein_placed,CpKRS_FrAncestor_bulkdock_iter2

>  <ref_pdb>  (1171) 
x0502c

>  <energy_score>  (1171) 
-16.135063

>  <distance_score>  (1171) 
0.324284

>  <HIPPO Pose ID>  (1171) 
58525

>  <ref_mols>  (1171) 
x0502b

>  <smiles>  (1171) 
Cc1nn(C)c(C(F)(F)F)c1C(=O)NCC1CCCC1

>  <HIPPO Compound ID>  (1171) 
37688

>  <alias>  (1171) 
AXQNAPPBYYTDRY-UHFFFAOYSA-N-P44

>  <subsites>  (1171) 


>  <placement_batch>  (1171) 
CpKRS_FrAncestor_bulkdock_iter2

>  <name>  (1171) 
AXQNAPPBYYTDRY-UHFFFAOYSA-N-P44

$$$$
KQTKHWKOUWLETO-VIFPVBQESA-N-P13
     RDKit          3D

 18 19  0  0  0  0  0  0  0  0999 V2000
    4.5542  -15.6359   26.7551 C   0  0  0  0  0  0  0  0  0  0  0  0
    3.4234  -14.7762   26.3200 C   0  0  0  0  0  0  0  0  0  0  0  0
    2.1886  -15.0239   26.7858 N   0  0  0  0  0  0  0  0  0  0  0  0
    1.4247  -14.1049   26.1757 N   0  0  0  0  0  0  0  0  0  0  0  0
    0.0034  -14.1208   26.4040 C   0  0  0  0  0  0  0  0  0  0  0  0
    2.1333  -13.2723   25.3697 C   0  0  0  0  0  0  0  0  0  0  0  0
    1.3156  -12.0580   24.4926 Cl  0  0  0  0  0  0  0  0  0  0  0  0
    3.4546  -13.6569   25.4306 C   0  0  0  0  0  0  0  0  0  0  0  0
    4.6224  -13.1040   24.7411 C   0  0  0  0  0  0  0  0  0  0  0  0
    5.5562  -13.7765   24.5678 O   0  0  0  0  0  0  0  0  0  0  0  0
    4.3558  -11.6465   24.3354 N   0  0  0  0  0  0  0  0  0  0  0  0
    5.2167  -10.6780   23.7141 C   0  0  1  0  0  0  0  0  0  0  0  0
    5.0923  -10.7894   22.1880 C   0  0  0  0  0  0  0  0  0  0  0  0
    5.0393   -9.3680   21.6533 C   0  0  0  0  0  0  0  0  0  0  0  0
    5.4859   -8.4852   22.7944 C   0  0  0  0  0  0  0  0  0  0  0  0
    4.9628   -9.1883   24.0560 C   0  0  0  0  0  0  0  0  0  0  0  0
    5.7871   -8.6735   25.2346 C   0  0  0  0  0  0  0  0  0  0  0  0
    3.4886   -8.8751   24.3303 C   0  0  0  0  0  0  0  0  0  0  0  0
  1  2  1  0
  2  3  2  0
  3  4  1  0
  4  5  1  0
  4  6  1  0
  6  7  1  0
  6  8  2  0
  8  9  1  0
  9 10  2  0
  9 11  1  0
 12 11  1  1
 12 13  1  0
 13 14  1  0
 14 15  1  0
 15 16  1  0
 16 17  1  0
 16 18  1  0
  8  2  1  0
 16 12  1  0
M  END
>  <inchikey>  (1172) 
KQTKHWKOUWLETO-UHFFFAOYSA-N

>  <tags>  (1172) 
fragmenstein_placed,CpKRS_FrAncestor_bulkdock_iter2

>  <ref_pdb>  (1172) 
x0502c

>  <energy_score>  (1172) 
-18.513755

>  <distance_score>  (1172) 
0.219072

>  <HIPPO Pose ID>  (1172) 
58545

>  <ref_mols>  (1172) 
x0421c

>  <smiles>  (1172) 
Cc1nn(C)c(Cl)c1C(=O)N[C@H]1CCCC1(C)C

>  <HIPPO Compound ID>  (1172) 
37689

>  <alias>  (1172) 
KQTKHWKOUWLETO-VIFPVBQESA-N-P13

>  <subsites>  (1172) 


>  <placement_batch>  (1172) 
CpKRS_FrAncestor_bulkdock_iter2

>  <name>  (1172) 
KQTKHWKOUWLETO-VIFPVBQESA-N-P13

$$$$
MJQMDNBEGPCSBI-APPZFPTMSA-N-P13
     RDKit          3D

 17 18  0  0  0  0  0  0  0  0999 V2000
    4.5091  -15.6910   26.7808 C   0  0  0  0  0  0  0  0  0  0  0  0
    3.3799  -14.8550   26.2983 C   0  0  0  0  0  0  0  0  0  0  0  0
    2.1383  -15.0932   26.7512 N   0  0  0  0  0  0  0  0  0  0  0  0
    1.3843  -14.1829   26.1173 N   0  0  0  0  0  0  0  0  0  0  0  0
   -0.0337  -14.1627   26.3619 C   0  0  0  0  0  0  0  0  0  0  0  0
    2.1008  -13.3798   25.2899 C   0  0  0  0  0  0  0  0  0  0  0  0
    1.2980  -12.1838   24.3743 Cl  0  0  0  0  0  0  0  0  0  0  0  0
    3.4215  -13.7591   25.3823 C   0  0  0  0  0  0  0  0  0  0  0  0
    4.6013  -13.1958   24.7244 C   0  0  0  0  0  0  0  0  0  0  0  0
    5.5628  -13.8404   24.6069 O   0  0  0  0  0  0  0  0  0  0  0  0
    4.3425  -11.7226   24.3786 N   0  0  0  0  0  0  0  0  0  0  0  0
    5.1776  -10.7599   23.7310 C   0  0  1  0  0  0  0  0  0  0  0  0
    4.9270  -10.6763   22.2327 C   0  0  0  0  0  0  0  0  0  0  0  0
    5.4141   -9.2874   21.8299 C   0  0  0  0  0  0  0  0  0  0  0  0
    5.6678   -8.5138   23.1235 C   0  0  0  0  0  0  0  0  0  0  0  0
    5.0012   -9.3242   24.2344 C   0  0  1  0  0  0  0  0  0  0  0  0
    3.5517   -8.8975   24.4446 C   0  0  0  0  0  0  0  0  0  0  0  0
  1  2  1  0
  2  3  2  0
  3  4  1  0
  4  5  1  0
  4  6  1  0
  6  7  1  0
  6  8  2  0
  8  9  1  0
  9 10  2  0
  9 11  1  0
 12 11  1  1
 12 13  1  0
 13 14  1  0
 14 15  1  0
 15 16  1  0
 16 17  1  6
  8  2  1  0
 16 12  1  0
M  END
>  <inchikey>  (1173) 
MJQMDNBEGPCSBI-UHFFFAOYSA-N

>  <tags>  (1173) 
fragmenstein_placed,CpKRS_FrAncestor_bulkdock_iter2

>  <ref_pdb>  (1173) 
x0502c

>  <energy_score>  (1173) 
-5.471274

>  <distance_score>  (1173) 
0.258579

>  <HIPPO Pose ID>  (1173) 
58553

>  <ref_mols>  (1173) 
x0421c

>  <smiles>  (1173) 
Cc1nn(C)c(Cl)c1C(=O)N[C@H]1CCC[C@H]1C

>  <HIPPO Compound ID>  (1173) 
37690

>  <alias>  (1173) 
MJQMDNBEGPCSBI-APPZFPTMSA-N-P13

>  <subsites>  (1173) 


>  <placement_batch>  (1173) 
CpKRS_FrAncestor_bulkdock_iter2

>  <name>  (1173) 
MJQMDNBEGPCSBI-APPZFPTMSA-N-P13

$$$$
AFKDONYJNQFWJH-UHFFFAOYSA-N-P46
     RDKit          3D

 19 20  0  0  0  0  0  0  0  0999 V2000
    4.8752  -15.5563   26.9851 C   0  0  0  0  0  0  0  0  0  0  0  0
    3.7249  -14.6840   26.6572 C   0  0  0  0  0  0  0  0  0  0  0  0
    2.6072  -14.7809   27.3955 N   0  0  0  0  0  0  0  0  0  0  0  0
    1.7867  -13.8943   26.8250 N   0  0  0  0  0  0  0  0  0  0  0  0
    0.5254  -13.6048   27.4394 C   0  0  0  0  0  0  0  0  0  0  0  0
    2.3030  -13.3030   25.7202 C   0  0  0  0  0  0  0  0  0  0  0  0
    1.3097  -12.2508   24.8164 Cl  0  0  0  0  0  0  0  0  0  0  0  0
    3.6109  -13.7176   25.6027 C   0  0  0  0  0  0  0  0  0  0  0  0
    4.6539  -13.2930   24.6582 C   0  0  0  0  0  0  0  0  0  0  0  0
    5.7689  -13.5210   24.9034 O   0  0  0  0  0  0  0  0  0  0  0  0
    4.0273  -12.5539   23.4644 N   0  0  0  0  0  0  0  0  0  0  0  0
    4.6420  -11.8599   22.3731 C   0  0  0  0  0  0  0  0  0  0  0  0
    5.1458  -10.4614   22.7051 C   0  0  1  0  0  0  0  0  0  0  0  0
    5.4708   -9.6526   21.4385 C   0  0  0  0  0  0  0  0  0  0  0  0
    5.0218   -8.2276   21.6943 C   0  0  0  0  0  0  0  0  0  0  0  0
    4.8958   -8.1655   23.1885 C   0  0  0  0  0  0  0  0  0  0  0  0
    4.2791   -9.5066   23.5407 C   0  0  0  0  0  0  0  0  0  0  0  0
    2.7687   -9.5133   23.2700 C   0  0  0  0  0  0  0  0  0  0  0  0
    4.5001   -9.6740   25.0097 C   0  0  0  0  0  0  0  0  0  0  0  0
  1  2  1  0
  2  3  2  0
  3  4  1  0
  4  5  1  0
  4  6  1  0
  6  7  1  0
  6  8  2  0
  8  9  1  0
  9 10  2  0
  9 11  1  0
 11 12  1  0
 13 12  1  6
 13 14  1  0
 14 15  1  0
 15 16  1  0
 16 17  1  0
 17 18  1  0
 17 19  1  0
  8  2  1  0
 17 13  1  0
M  END
>  <inchikey>  (1174) 
AFKDONYJNQFWJH-UHFFFAOYSA-N

>  <tags>  (1174) 
fragmenstein_placed,CpKRS_FrAncestor_bulkdock_iter2

>  <ref_pdb>  (1174) 
x0502c

>  <energy_score>  (1174) 
-19.866297

>  <distance_score>  (1174) 
0.587779

>  <HIPPO Pose ID>  (1174) 
58557

>  <ref_mols>  (1174) 
x0502c

>  <smiles>  (1174) 
Cc1nn(C)c(Cl)c1C(=O)NCC1CCCC1(C)C

>  <HIPPO Compound ID>  (1174) 
37693

>  <alias>  (1174) 
AFKDONYJNQFWJH-UHFFFAOYSA-N-P46

>  <subsites>  (1174) 


>  <placement_batch>  (1174) 
CpKRS_FrAncestor_bulkdock_iter2

>  <name>  (1174) 
AFKDONYJNQFWJH-UHFFFAOYSA-N-P46

$$$$
CNGDYKQHZXZYCW-UHFFFAOYSA-N-P44
     RDKit          3D

 18 19  0  0  0  0  0  0  0  0999 V2000
   -9.7751  -14.4538   49.1440 C   0  0  0  0  0  0  0  0  0  0  0  0
   -9.3547  -13.2744   48.3438 C   0  0  0  0  0  0  0  0  0  0  0  0
   -8.2456  -12.6127   48.7054 N   0  0  0  0  0  0  0  0  0  0  0  0
   -8.1574  -11.6047   47.8169 N   0  0  0  0  0  0  0  0  0  0  0  0
   -7.0812  -10.6549   47.9584 C   0  0  0  0  0  0  0  0  0  0  0  0
   -9.1856  -11.6006   46.9257 C   0  0  0  0  0  0  0  0  0  0  0  0
   -9.2864  -10.3997   45.7204 Cl  0  0  0  0  0  0  0  0  0  0  0  0
  -10.0058  -12.6644   47.2278 C   0  0  0  0  0  0  0  0  0  0  0  0
  -11.2813  -12.9703   46.5849 C   0  0  0  0  0  0  0  0  0  0  0  0
  -12.0133  -12.0996   46.3378 O   0  0  0  0  0  0  0  0  0  0  0  0
  -11.4482  -14.4893   46.4191 N   0  0  0  0  0  0  0  0  0  0  0  0
  -12.5169  -15.2557   45.8245 C   0  0  0  0  0  0  0  0  0  0  0  0
  -12.4171  -15.2863   44.2912 C   0  0  1  0  0  0  0  0  0  0  0  0
  -11.4667  -16.3984   43.8273 C   0  0  0  0  0  0  0  0  0  0  0  0
  -12.3322  -17.6402   43.6067 C   0  0  0  0  0  0  0  0  0  0  0  0
  -13.7824  -17.1814   43.7004 C   0  0  0  0  0  0  0  0  0  0  0  0
  -13.7143  -15.6646   43.5522 C   0  0  1  0  0  0  0  0  0  0  0  0
  -14.9836  -14.9648   44.0104 C   0  0  0  0  0  0  0  0  0  0  0  0
  1  2  1  0
  2  3  2  0
  3  4  1  0
  4  5  1  0
  4  6  1  0
  6  7  1  0
  6  8  2  0
  8  9  1  0
  9 10  2  0
  9 11  1  0
 11 12  1  0
 13 12  1  1
 13 14  1  0
 14 15  1  0
 15 16  1  0
 16 17  1  0
 17 18  1  1
  8  2  1  0
 17 13  1  0
M  END
>  <inchikey>  (1175) 
CNGDYKQHZXZYCW-UHFFFAOYSA-N

>  <tags>  (1175) 
fragmenstein_placed,CpKRS_FrAncestor_bulkdock_iter2

>  <ref_pdb>  (1175) 
x0502c

>  <energy_score>  (1175) 
-6.143756

>  <distance_score>  (1175) 
0.298785

>  <HIPPO Pose ID>  (1175) 
58559

>  <ref_mols>  (1175) 
x0502b

>  <smiles>  (1175) 
Cc1nn(C)c(Cl)c1C(=O)NCC1CCCC1C

>  <HIPPO Compound ID>  (1175) 
37694

>  <alias>  (1175) 
CNGDYKQHZXZYCW-UHFFFAOYSA-N-P44

>  <subsites>  (1175) 


>  <placement_batch>  (1175) 
CpKRS_FrAncestor_bulkdock_iter2

>  <name>  (1175) 
CNGDYKQHZXZYCW-UHFFFAOYSA-N-P44

$$$$
AAQCFSJBQDCUJE-UHFFFAOYSA-N-P46
     RDKit          3D

 17 18  0  0  0  0  0  0  0  0999 V2000
    4.4957  -15.6025   27.0220 C   0  0  0  0  0  0  0  0  0  0  0  0
    3.4480  -14.6295   26.6300 C   0  0  0  0  0  0  0  0  0  0  0  0
    2.2611  -14.6487   27.2624 N   0  0  0  0  0  0  0  0  0  0  0  0
    1.5685  -13.6721   26.6587 N   0  0  0  0  0  0  0  0  0  0  0  0
    0.2216  -13.4094   27.0751 C   0  0  0  0  0  0  0  0  0  0  0  0
    2.2519  -13.0614   25.6614 C   0  0  0  0  0  0  0  0  0  0  0  0
    1.5047  -11.8037   24.7739 Cl  0  0  0  0  0  0  0  0  0  0  0  0
    3.5050  -13.6322   25.6051 C   0  0  0  0  0  0  0  0  0  0  0  0
    4.6379  -13.2566   24.7532 C   0  0  0  0  0  0  0  0  0  0  0  0
    5.7268  -13.4598   25.1115 O   0  0  0  0  0  0  0  0  0  0  0  0
    4.1204  -12.5289   23.5024 N   0  0  0  0  0  0  0  0  0  0  0  0
    4.8264  -11.8186   22.4821 C   0  0  0  0  0  0  0  0  0  0  0  0
    4.6172  -10.3317   22.6861 C   0  0  0  0  0  0  0  0  0  0  0  0
    5.1914   -9.7832   23.9931 C   0  0  0  0  0  0  0  0  0  0  0  0
    5.5444   -8.3274   23.7009 C   0  0  0  0  0  0  0  0  0  0  0  0
    5.1713   -8.1005   22.2401 C   0  0  0  0  0  0  0  0  0  0  0  0
    5.2669   -9.4742   21.6159 C   0  0  0  0  0  0  0  0  0  0  0  0
  1  2  1  0
  2  3  2  0
  3  4  1  0
  4  5  1  0
  4  6  1  0
  6  7  1  0
  6  8  2  0
  8  9  1  0
  9 10  2  0
  9 11  1  0
 11 12  1  0
 12 13  1  0
 13 14  1  0
 14 15  1  0
 15 16  1  0
 16 17  1  0
  8  2  1  0
 17 13  1  0
M  END
>  <inchikey>  (1176) 
AAQCFSJBQDCUJE-UHFFFAOYSA-N

>  <tags>  (1176) 
fragmenstein_placed,CpKRS_FrAncestor_bulkdock_iter2

>  <ref_pdb>  (1176) 
x0502c

>  <energy_score>  (1176) 
-14.821817

>  <distance_score>  (1176) 
0.576565

>  <HIPPO Pose ID>  (1176) 
58563

>  <ref_mols>  (1176) 
x0502c

>  <smiles>  (1176) 
Cc1nn(C)c(Cl)c1C(=O)NCC1CCCC1

>  <HIPPO Compound ID>  (1176) 
37695

>  <alias>  (1176) 
AAQCFSJBQDCUJE-UHFFFAOYSA-N-P46

>  <subsites>  (1176) 


>  <placement_batch>  (1176) 
CpKRS_FrAncestor_bulkdock_iter2

>  <name>  (1176) 
AAQCFSJBQDCUJE-UHFFFAOYSA-N-P46

$$$$
KJIOOJQUXNWRFL-UHFFFAOYSA-N-P44
     RDKit          3D

 18 19  0  0  0  0  0  0  0  0999 V2000
   -9.7444  -14.4362   49.2179 C   0  0  0  0  0  0  0  0  0  0  0  0
   -9.3492  -13.2938   48.3538 C   0  0  0  0  0  0  0  0  0  0  0  0
   -8.2645  -12.5812   48.6921 N   0  0  0  0  0  0  0  0  0  0  0  0
   -8.1925  -11.6214   47.7504 N   0  0  0  0  0  0  0  0  0  0  0  0
   -7.1476  -10.6328   47.8553 C   0  0  0  0  0  0  0  0  0  0  0  0
   -9.2083  -11.6958   46.8484 C   0  0  0  0  0  0  0  0  0  0  0  0
   -9.3287  -10.5636   45.5798 Cl  0  0  0  0  0  0  0  0  0  0  0  0
  -10.0021  -12.7662   47.1970 C   0  0  0  0  0  0  0  0  0  0  0  0
  -11.2644  -13.1348   46.5581 C   0  0  0  0  0  0  0  0  0  0  0  0
  -12.0112  -12.2900   46.2655 O   0  0  0  0  0  0  0  0  0  0  0  0
  -11.4089  -14.6661   46.4792 N   0  0  0  0  0  0  0  0  0  0  0  0
  -12.4772  -15.4877   45.9297 C   0  0  1  0  0  0  0  0  0  0  0  0
  -13.7885  -15.1091   46.6186 C   0  0  0  0  0  0  0  0  0  0  0  0
  -12.5125  -15.3519   44.3848 C   0  0  0  0  0  0  0  0  0  0  0  0
  -13.8180  -15.7566   43.6946 C   0  0  0  0  0  0  0  0  0  0  0  0
  -13.7761  -17.2750   43.6655 C   0  0  0  0  0  0  0  0  0  0  0  0
  -12.3007  -17.6257   43.5172 C   0  0  0  0  0  0  0  0  0  0  0  0
  -11.5223  -16.3280   43.7348 C   0  0  0  0  0  0  0  0  0  0  0  0
  1  2  1  0
  2  3  2  0
  3  4  1  0
  4  5  1  0
  4  6  1  0
  6  7  1  0
  6  8  2  0
  8  9  1  0
  9 10  2  0
  9 11  1  0
 11 12  1  0
 12 13  1  1
 12 14  1  0
 14 15  1  0
 15 16  1  0
 16 17  1  0
 17 18  1  0
  8  2  1  0
 18 14  1  0
M  END
>  <inchikey>  (1177) 
KJIOOJQUXNWRFL-UHFFFAOYSA-N

>  <tags>  (1177) 
fragmenstein_placed,CpKRS_FrAncestor_bulkdock_iter2

>  <ref_pdb>  (1177) 
x0502c

>  <energy_score>  (1177) 
-26.520884

>  <distance_score>  (1177) 
0.298111

>  <HIPPO Pose ID>  (1177) 
58565

>  <ref_mols>  (1177) 
x0502b

>  <smiles>  (1177) 
Cc1nn(C)c(Cl)c1C(=O)NC(C)C1CCCC1

>  <HIPPO Compound ID>  (1177) 
37696

>  <alias>  (1177) 
KJIOOJQUXNWRFL-UHFFFAOYSA-N-P44

>  <subsites>  (1177) 


>  <placement_batch>  (1177) 
CpKRS_FrAncestor_bulkdock_iter2

>  <name>  (1177) 
KJIOOJQUXNWRFL-UHFFFAOYSA-N-P44

$$$$
BYHNXXRNQROIKT-UHFFFAOYSA-N-P48
     RDKit          3D

 17 17  0  0  0  0  0  0  0  0999 V2000
    4.4392  -15.7518   27.1191 C   0  0  0  0  0  0  0  0  0  0  0  0
    3.2987  -14.8707   26.7659 C   0  0  0  0  0  0  0  0  0  0  0  0
    2.1288  -15.0309   27.3989 N   0  0  0  0  0  0  0  0  0  0  0  0
    1.3270  -14.1094   26.8370 N   0  0  0  0  0  0  0  0  0  0  0  0
   -0.0109  -13.9701   27.3537 C   0  0  0  0  0  0  0  0  0  0  0  0
    1.9313  -13.4424   25.8151 C   0  0  0  0  0  0  0  0  0  0  0  0
    1.0211  -12.3972   24.8191 Cl  0  0  0  0  0  0  0  0  0  0  0  0
    3.2541  -13.8311   25.7830 C   0  0  0  0  0  0  0  0  0  0  0  0
    4.3708  -13.3746   24.9447 C   0  0  0  0  0  0  0  0  0  0  0  0
    5.3566  -13.9925   24.9442 O   0  0  0  0  0  0  0  0  0  0  0  0
    3.9999  -12.0921   24.1857 N   0  0  0  0  0  0  0  0  0  0  0  0
    4.7349  -11.3442   23.1847 C   0  0  1  0  0  0  0  0  0  0  0  0
    4.6457  -12.0951   21.8692 C   0  0  0  0  0  0  0  0  0  0  0  0
    4.3144   -9.8805   23.0310 C   0  0  0  0  0  0  0  0  0  0  0  0
    4.6340   -9.0487   24.2534 C   0  0  0  0  0  0  0  0  0  0  0  0
    4.9426   -9.3235   21.9619 F   0  0  0  0  0  0  0  0  0  0  0  0
    2.9798   -9.7709   22.7815 F   0  0  0  0  0  0  0  0  0  0  0  0
  1  2  1  0
  2  3  2  0
  3  4  1  0
  4  5  1  0
  4  6  1  0
  6  7  1  0
  6  8  2  0
  8  9  1  0
  9 10  2  0
  9 11  1  0
 11 12  1  0
 12 13  1  6
 12 14  1  0
 14 15  1  0
 14 16  1  0
 14 17  1  0
  8  2  1  0
M  END
>  <inchikey>  (1178) 
BYHNXXRNQROIKT-UHFFFAOYSA-N

>  <tags>  (1178) 
fragmenstein_placed,CpKRS_FrAncestor_bulkdock_iter2

>  <ref_pdb>  (1178) 
x0502c

>  <energy_score>  (1178) 
-12.161387

>  <distance_score>  (1178) 
0.534707

>  <HIPPO Pose ID>  (1178) 
58570

>  <ref_mols>  (1178) 
x0504a

>  <smiles>  (1178) 
Cc1nn(C)c(Cl)c1C(=O)NC(C)C(C)(F)F

>  <HIPPO Compound ID>  (1178) 
37697

>  <alias>  (1178) 
BYHNXXRNQROIKT-UHFFFAOYSA-N-P48

>  <subsites>  (1178) 


>  <placement_batch>  (1178) 
CpKRS_FrAncestor_bulkdock_iter2

>  <name>  (1178) 
BYHNXXRNQROIKT-UHFFFAOYSA-N-P48

$$$$
UIGLUNKYQIXFLE-UHFFFAOYSA-N-P48
     RDKit          3D

 16 16  0  0  0  0  0  0  0  0999 V2000
    4.6137  -15.6218   26.9104 C   0  0  0  0  0  0  0  0  0  0  0  0
    3.3966  -14.8253   26.6108 C   0  0  0  0  0  0  0  0  0  0  0  0
    2.2764  -15.0635   27.3075 N   0  0  0  0  0  0  0  0  0  0  0  0
    1.3889  -14.1915   26.8000 N   0  0  0  0  0  0  0  0  0  0  0  0
    0.0737  -14.1340   27.3878 C   0  0  0  0  0  0  0  0  0  0  0  0
    1.8849  -13.4923   25.7408 C   0  0  0  0  0  0  0  0  0  0  0  0
    0.8503  -12.4706   24.8470 Cl  0  0  0  0  0  0  0  0  0  0  0  0
    3.2215  -13.8099   25.6128 C   0  0  0  0  0  0  0  0  0  0  0  0
    4.2609  -13.2849   24.7104 C   0  0  0  0  0  0  0  0  0  0  0  0
    5.3673  -13.5798   24.9129 O   0  0  0  0  0  0  0  0  0  0  0  0
    3.6584  -12.3533   23.6510 N   0  0  0  0  0  0  0  0  0  0  0  0
    4.2816  -11.6571   22.5506 C   0  0  0  0  0  0  0  0  0  0  0  0
    4.3647  -10.1386   22.7265 C   0  0  0  0  0  0  0  0  0  0  0  0
    5.0567   -9.6786   23.9894 C   0  0  0  0  0  0  0  0  0  0  0  0
    5.0067   -9.5998   21.6555 F   0  0  0  0  0  0  0  0  0  0  0  0
    3.1098   -9.5935   22.7128 F   0  0  0  0  0  0  0  0  0  0  0  0
  1  2  1  0
  2  3  2  0
  3  4  1  0
  4  5  1  0
  4  6  1  0
  6  7  1  0
  6  8  2  0
  8  9  1  0
  9 10  2  0
  9 11  1  0
 11 12  1  0
 12 13  1  0
 13 14  1  0
 13 15  1  0
 13 16  1  0
  8  2  1  0
M  END
>  <inchikey>  (1179) 
UIGLUNKYQIXFLE-UHFFFAOYSA-N

>  <tags>  (1179) 
fragmenstein_placed,CpKRS_FrAncestor_bulkdock_iter2

>  <ref_pdb>  (1179) 
x0502c

>  <energy_score>  (1179) 
-4.232721

>  <distance_score>  (1179) 
0.730984

>  <HIPPO Pose ID>  (1179) 
58573

>  <ref_mols>  (1179) 
x0504a

>  <smiles>  (1179) 
Cc1nn(C)c(Cl)c1C(=O)NCC(C)(F)F

>  <HIPPO Compound ID>  (1179) 
37698

>  <alias>  (1179) 
UIGLUNKYQIXFLE-UHFFFAOYSA-N-P48

>  <subsites>  (1179) 


>  <placement_batch>  (1179) 
CpKRS_FrAncestor_bulkdock_iter2

>  <name>  (1179) 
UIGLUNKYQIXFLE-UHFFFAOYSA-N-P48

$$$$
GJLCAOWSGLPYKB-UHFFFAOYSA-N-P48
     RDKit          3D

 16 16  0  0  0  0  0  0  0  0999 V2000
    4.5882  -15.6692   26.9695 C   0  0  0  0  0  0  0  0  0  0  0  0
    3.3833  -14.8607   26.6588 C   0  0  0  0  0  0  0  0  0  0  0  0
    2.2600  -15.0741   27.3575 N   0  0  0  0  0  0  0  0  0  0  0  0
    1.3882  -14.1882   26.8474 N   0  0  0  0  0  0  0  0  0  0  0  0
    0.0802  -14.0967   27.4462 C   0  0  0  0  0  0  0  0  0  0  0  0
    1.8921  -13.5133   25.7764 C   0  0  0  0  0  0  0  0  0  0  0  0
    0.8719  -12.4897   24.8678 Cl  0  0  0  0  0  0  0  0  0  0  0  0
    3.2225  -13.8578   25.6478 C   0  0  0  0  0  0  0  0  0  0  0  0
    4.2650  -13.3675   24.7308 C   0  0  0  0  0  0  0  0  0  0  0  0
    5.3623  -13.7137   24.8985 O   0  0  0  0  0  0  0  0  0  0  0  0
    3.6652  -12.4511   23.6576 N   0  0  0  0  0  0  0  0  0  0  0  0
    4.3053  -11.6846   22.6119 C   0  0  0  0  0  0  0  0  0  0  0  0
    4.4575  -10.1839   22.8898 C   0  0  0  0  0  0  0  0  0  0  0  0
    5.0494   -9.5872   21.8211 F   0  0  0  0  0  0  0  0  0  0  0  0
    5.2624   -9.9550   23.9544 F   0  0  0  0  0  0  0  0  0  0  0  0
    2.8963   -9.3644   23.1895 Cl  0  0  0  0  0  0  0  0  0  0  0  0
  1  2  1  0
  2  3  2  0
  3  4  1  0
  4  5  1  0
  4  6  1  0
  6  7  1  0
  6  8  2  0
  8  9  1  0
  9 10  2  0
  9 11  1  0
 11 12  1  0
 12 13  1  0
 13 14  1  0
 13 15  1  0
 13 16  1  0
  8  2  1  0
M  END
>  <inchikey>  (1180) 
GJLCAOWSGLPYKB-UHFFFAOYSA-N

>  <tags>  (1180) 
fragmenstein_placed,CpKRS_FrAncestor_bulkdock_iter2

>  <ref_pdb>  (1180) 
x0502c

>  <energy_score>  (1180) 
-2.655884

>  <distance_score>  (1180) 
0.454975

>  <HIPPO Pose ID>  (1180) 
58579

>  <ref_mols>  (1180) 
x0504a

>  <smiles>  (1180) 
Cc1nn(C)c(Cl)c1C(=O)NCC(F)(F)Cl

>  <HIPPO Compound ID>  (1180) 
37700

>  <alias>  (1180) 
GJLCAOWSGLPYKB-UHFFFAOYSA-N-P48

>  <subsites>  (1180) 


>  <placement_batch>  (1180) 
CpKRS_FrAncestor_bulkdock_iter2

>  <name>  (1180) 
GJLCAOWSGLPYKB-UHFFFAOYSA-N-P48

$$$$
IYJNSJLHUMUNME-UHFFFAOYSA-N-P48
     RDKit          3D

 16 16  0  0  0  0  0  0  0  0999 V2000
    4.5700  -15.6551   26.9569 C   0  0  0  0  0  0  0  0  0  0  0  0
    3.3764  -14.8339   26.6335 C   0  0  0  0  0  0  0  0  0  0  0  0
    2.2430  -15.0352   27.3196 N   0  0  0  0  0  0  0  0  0  0  0  0
    1.3826  -14.1471   26.7933 N   0  0  0  0  0  0  0  0  0  0  0  0
    0.0662  -14.0488   27.3730 C   0  0  0  0  0  0  0  0  0  0  0  0
    1.9073  -13.4755   25.7298 C   0  0  0  0  0  0  0  0  0  0  0  0
    0.9163  -12.4310   24.8132 Cl  0  0  0  0  0  0  0  0  0  0  0  0
    3.2357  -13.8322   25.6183 C   0  0  0  0  0  0  0  0  0  0  0  0
    4.2932  -13.3465   24.7167 C   0  0  0  0  0  0  0  0  0  0  0  0
    5.3985  -13.6085   24.9655 O   0  0  0  0  0  0  0  0  0  0  0  0
    3.7009  -12.5343   23.5585 N   0  0  0  0  0  0  0  0  0  0  0  0
    4.3529  -11.7859   22.5039 C   0  0  0  0  0  0  0  0  0  0  0  0
    4.4007  -10.2741   22.7215 C   0  0  0  0  0  0  0  0  0  0  0  0
    3.1538   -9.7317   22.7305 F   0  0  0  0  0  0  0  0  0  0  0  0
    4.9881   -9.9257   23.8857 F   0  0  0  0  0  0  0  0  0  0  0  0
    5.0811   -9.6639   21.7237 F   0  0  0  0  0  0  0  0  0  0  0  0
  1  2  1  0
  2  3  2  0
  3  4  1  0
  4  5  1  0
  4  6  1  0
  6  7  1  0
  6  8  2  0
  8  9  1  0
  9 10  2  0
  9 11  1  0
 11 12  1  0
 12 13  1  0
 13 14  1  0
 13 15  1  0
 13 16  1  0
  8  2  1  0
M  END
>  <inchikey>  (1181) 
IYJNSJLHUMUNME-UHFFFAOYSA-N

>  <tags>  (1181) 
fragmenstein_placed,CpKRS_FrAncestor_bulkdock_iter2

>  <ref_pdb>  (1181) 
x0502c

>  <energy_score>  (1181) 
-1.006606

>  <distance_score>  (1181) 
0.459823

>  <HIPPO Pose ID>  (1181) 
58582

>  <ref_mols>  (1181) 
x0504a

>  <smiles>  (1181) 
Cc1nn(C)c(Cl)c1C(=O)NCC(F)(F)F

>  <HIPPO Compound ID>  (1181) 
37701

>  <alias>  (1181) 
IYJNSJLHUMUNME-UHFFFAOYSA-N-P48

>  <subsites>  (1181) 


>  <placement_batch>  (1181) 
CpKRS_FrAncestor_bulkdock_iter2

>  <name>  (1181) 
IYJNSJLHUMUNME-UHFFFAOYSA-N-P48

$$$$
FVRIMFJPYFORQO-UHFFFAOYSA-N-P48
     RDKit          3D

 15 15  0  0  0  0  0  0  0  0999 V2000
    4.6244  -15.6743   26.9817 C   0  0  0  0  0  0  0  0  0  0  0  0
    3.4170  -14.8693   26.6730 C   0  0  0  0  0  0  0  0  0  0  0  0
    2.2953  -15.0888   27.3721 N   0  0  0  0  0  0  0  0  0  0  0  0
    1.4155  -14.2146   26.8566 N   0  0  0  0  0  0  0  0  0  0  0  0
    0.1005  -14.1418   27.4429 C   0  0  0  0  0  0  0  0  0  0  0  0
    1.9183  -13.5307   25.7910 C   0  0  0  0  0  0  0  0  0  0  0  0
    0.8906  -12.5120   24.8855 Cl  0  0  0  0  0  0  0  0  0  0  0  0
    3.2524  -13.8638   25.6655 C   0  0  0  0  0  0  0  0  0  0  0  0
    4.2943  -13.3603   24.7536 C   0  0  0  0  0  0  0  0  0  0  0  0
    5.3964  -13.6858   24.9302 O   0  0  0  0  0  0  0  0  0  0  0  0
    3.6913  -12.4273   23.6982 N   0  0  0  0  0  0  0  0  0  0  0  0
    4.3031  -11.7672   22.5724 C   0  0  0  0  0  0  0  0  0  0  0  0
    4.9390  -10.4282   22.9235 C   0  0  0  0  0  0  0  0  0  0  0  0
    5.3889   -9.8310   21.7895 F   0  0  0  0  0  0  0  0  0  0  0  0
    4.0085   -9.5789   23.4416 F   0  0  0  0  0  0  0  0  0  0  0  0
  1  2  1  0
  2  3  2  0
  3  4  1  0
  4  5  1  0
  4  6  1  0
  6  7  1  0
  6  8  2  0
  8  9  1  0
  9 10  2  0
  9 11  1  0
 11 12  1  0
 12 13  1  0
 13 14  1  0
 13 15  1  0
  8  2  1  0
M  END
>  <inchikey>  (1182) 
FVRIMFJPYFORQO-UHFFFAOYSA-N

>  <tags>  (1182) 
fragmenstein_placed,CpKRS_FrAncestor_bulkdock_iter2

>  <ref_pdb>  (1182) 
x0502c

>  <energy_score>  (1182) 
-16.981632

>  <distance_score>  (1182) 
0.462861

>  <HIPPO Pose ID>  (1182) 
58585

>  <ref_mols>  (1182) 
x0504a

>  <smiles>  (1182) 
Cc1nn(C)c(Cl)c1C(=O)NCC(F)F

>  <HIPPO Compound ID>  (1182) 
37702

>  <alias>  (1182) 
FVRIMFJPYFORQO-UHFFFAOYSA-N-P48

>  <subsites>  (1182) 


>  <placement_batch>  (1182) 
CpKRS_FrAncestor_bulkdock_iter2

>  <name>  (1182) 
FVRIMFJPYFORQO-UHFFFAOYSA-N-P48

$$$$
PIUZKRLQUHTKOY-QMMMGPOBSA-N-P49
     RDKit          3D

 19 19  0  0  0  0  0  0  0  0999 V2000
    4.7900  -15.9004   26.3368 C   0  0  0  0  0  0  0  0  0  0  0  0
    3.6467  -14.9610   26.3207 C   0  0  0  0  0  0  0  0  0  0  0  0
    2.5971  -15.2019   27.1157 N   0  0  0  0  0  0  0  0  0  0  0  0
    1.7738  -14.1767   26.8748 N   0  0  0  0  0  0  0  0  0  0  0  0
    0.5262  -14.1313   27.5821 C   0  0  0  0  0  0  0  0  0  0  0  0
    2.2412  -13.3260   25.9222 C   0  0  0  0  0  0  0  0  0  0  0  0
    1.2702  -12.0187   25.4232 Cl  0  0  0  0  0  0  0  0  0  0  0  0
    3.4935  -13.7654   25.5490 C   0  0  0  0  0  0  0  0  0  0  0  0
    4.4655  -13.2129   24.5963 C   0  0  0  0  0  0  0  0  0  0  0  0
    5.3064  -13.9060   24.1915 O   0  0  0  0  0  0  0  0  0  0  0  0
    4.1683  -11.7368   24.3054 N   0  0  0  0  0  0  0  0  0  0  0  0
    4.9124  -10.7535   23.5121 C   0  0  1  0  0  0  0  0  0  0  0  0
    3.9855  -10.1778   22.4234 C   0  0  0  0  0  0  0  0  0  0  0  0
    2.8182   -9.3978   23.0337 C   0  0  0  0  0  0  0  0  0  0  0  0
    4.7745   -9.3297   21.4124 C   0  0  0  0  0  0  0  0  0  0  0  0
    5.5653   -9.6496   24.3612 C   0  0  0  0  0  0  0  0  0  0  0  0
    4.7063   -9.1853   25.2982 F   0  0  0  0  0  0  0  0  0  0  0  0
    5.9529   -8.5913   23.6184 F   0  0  0  0  0  0  0  0  0  0  0  0
    6.6578  -10.0884   25.0137 F   0  0  0  0  0  0  0  0  0  0  0  0
  1  2  1  0
  2  3  2  0
  3  4  1  0
  4  5  1  0
  4  6  1  0
  6  7  1  0
  6  8  2  0
  8  9  1  0
  9 10  2  0
  9 11  1  0
 12 11  1  1
 12 13  1  0
 13 14  1  0
 13 15  1  0
 12 16  1  0
 16 17  1  0
 16 18  1  0
 16 19  1  0
  8  2  1  0
M  END
>  <inchikey>  (1183) 
PIUZKRLQUHTKOY-UHFFFAOYSA-N

>  <tags>  (1183) 
fragmenstein_placed,CpKRS_FrAncestor_bulkdock_iter2

>  <ref_pdb>  (1183) 
x0502c

>  <energy_score>  (1183) 
-21.400344

>  <distance_score>  (1183) 
0.758182

>  <HIPPO Pose ID>  (1183) 
58589

>  <ref_mols>  (1183) 
x0504b

>  <smiles>  (1183) 
Cc1nn(C)c(Cl)c1C(=O)N[C@@H](C(C)C)C(F)(F)F

>  <HIPPO Compound ID>  (1183) 
37703

>  <alias>  (1183) 
PIUZKRLQUHTKOY-QMMMGPOBSA-N-P49

>  <subsites>  (1183) 


>  <placement_batch>  (1183) 
CpKRS_FrAncestor_bulkdock_iter2

>  <name>  (1183) 
PIUZKRLQUHTKOY-QMMMGPOBSA-N-P49

$$$$
NZLOCJILDOSQCJ-RXMQYKEDSA-N-P48
     RDKit          3D

 16 16  0  0  0  0  0  0  0  0999 V2000
    4.7357  -15.5621   26.9222 C   0  0  0  0  0  0  0  0  0  0  0  0
    3.4617  -14.8247   26.7368 C   0  0  0  0  0  0  0  0  0  0  0  0
    2.4053  -15.1639   27.4887 N   0  0  0  0  0  0  0  0  0  0  0  0
    1.4310  -14.3451   27.0630 N   0  0  0  0  0  0  0  0  0  0  0  0
    0.1500  -14.3903   27.7189 C   0  0  0  0  0  0  0  0  0  0  0  0
    1.8110  -13.5802   26.0042 C   0  0  0  0  0  0  0  0  0  0  0  0
    0.6342  -12.6579   25.1806 Cl  0  0  0  0  0  0  0  0  0  0  0  0
    3.1632  -13.7735   25.8090 C   0  0  0  0  0  0  0  0  0  0  0  0
    4.0995  -13.1355   24.8704 C   0  0  0  0  0  0  0  0  0  0  0  0
    5.2051  -13.4964   24.8456 O   0  0  0  0  0  0  0  0  0  0  0  0
    3.3861  -12.0584   24.0419 N   0  0  0  0  0  0  0  0  0  0  0  0
    3.8601  -11.2565   22.9342 C   0  0  2  0  0  0  0  0  0  0  0  0
    4.4222  -12.1651   21.8580 C   0  0  0  0  0  0  0  0  0  0  0  0
    4.8928  -10.2002   23.3088 C   0  0  0  0  0  0  0  0  0  0  0  0
    4.3187   -9.2845   24.1375 F   0  0  0  0  0  0  0  0  0  0  0  0
    5.2486   -9.5048   22.1937 F   0  0  0  0  0  0  0  0  0  0  0  0
  1  2  1  0
  2  3  2  0
  3  4  1  0
  4  5  1  0
  4  6  1  0
  6  7  1  0
  6  8  2  0
  8  9  1  0
  9 10  2  0
  9 11  1  0
 11 12  1  0
 12 13  1  6
 12 14  1  0
 14 15  1  0
 14 16  1  0
  8  2  1  0
M  END
>  <inchikey>  (1184) 
NZLOCJILDOSQCJ-UHFFFAOYSA-N

>  <tags>  (1184) 
fragmenstein_placed,CpKRS_FrAncestor_bulkdock_iter2

>  <ref_pdb>  (1184) 
x0502c

>  <energy_score>  (1184) 
-19.939497

>  <distance_score>  (1184) 
0.434069

>  <HIPPO Pose ID>  (1184) 
58594

>  <ref_mols>  (1184) 
x0504a

>  <smiles>  (1184) 
Cc1nn(C)c(Cl)c1C(=O)N[C@H](C)C(F)F

>  <HIPPO Compound ID>  (1184) 
37699

>  <alias>  (1184) 
NZLOCJILDOSQCJ-RXMQYKEDSA-N-P48

>  <subsites>  (1184) 


>  <placement_batch>  (1184) 
CpKRS_FrAncestor_bulkdock_iter2

>  <name>  (1184) 
NZLOCJILDOSQCJ-RXMQYKEDSA-N-P48

$$$$
DYVSFCCXNNSJLQ-RXMQYKEDSA-N-P48
     RDKit          3D

 18 18  0  0  0  0  0  0  0  0999 V2000
    4.7915  -15.5890   26.9456 C   0  0  0  0  0  0  0  0  0  0  0  0
    3.4977  -14.8794   26.8003 C   0  0  0  0  0  0  0  0  0  0  0  0
    2.4820  -15.2162   27.6067 N   0  0  0  0  0  0  0  0  0  0  0  0
    1.4830  -14.4109   27.2184 N   0  0  0  0  0  0  0  0  0  0  0  0
    0.2366  -14.4557   27.9358 C   0  0  0  0  0  0  0  0  0  0  0  0
    1.8011  -13.6634   26.1271 C   0  0  0  0  0  0  0  0  0  0  0  0
    0.5763  -12.7625   25.3520 Cl  0  0  0  0  0  0  0  0  0  0  0  0
    3.1404  -13.8594   25.8602 C   0  0  0  0  0  0  0  0  0  0  0  0
    4.0181  -13.2580   24.8462 C   0  0  0  0  0  0  0  0  0  0  0  0
    5.1079  -13.6502   24.7423 O   0  0  0  0  0  0  0  0  0  0  0  0
    3.2544  -12.2134   24.0215 N   0  0  0  0  0  0  0  0  0  0  0  0
    3.6431  -11.4875   22.8181 C   0  0  2  0  0  0  0  0  0  0  0  0
    4.7369  -12.1765   22.0253 C   0  0  0  0  0  0  0  0  0  0  0  0
    5.9396  -11.7102   22.4255 F   0  0  0  0  0  0  0  0  0  0  0  0
    4.0329  -10.0250   23.0267 C   0  0  0  0  0  0  0  0  0  0  0  0
    2.9270   -9.2868   23.3412 F   0  0  0  0  0  0  0  0  0  0  0  0
    4.5271   -9.4691   21.8941 F   0  0  0  0  0  0  0  0  0  0  0  0
    4.9258   -9.8235   24.0135 F   0  0  0  0  0  0  0  0  0  0  0  0
  1  2  1  0
  2  3  2  0
  3  4  1  0
  4  5  1  0
  4  6  1  0
  6  7  1  0
  6  8  2  0
  8  9  1  0
  9 10  2  0
  9 11  1  0
 11 12  1  0
 12 13  1  1
 13 14  1  0
 12 15  1  0
 15 16  1  0
 15 17  1  0
 15 18  1  0
  8  2  1  0
M  END
>  <inchikey>  (1185) 
DYVSFCCXNNSJLQ-UHFFFAOYSA-N

>  <tags>  (1185) 
fragmenstein_placed,CpKRS_FrAncestor_bulkdock_iter2

>  <ref_pdb>  (1185) 
x0502c

>  <energy_score>  (1185) 
-0.340394

>  <distance_score>  (1185) 
0.439637

>  <HIPPO Pose ID>  (1185) 
58597

>  <ref_mols>  (1185) 
x0504a

>  <smiles>  (1185) 
Cc1nn(C)c(Cl)c1C(=O)N[C@H](CF)C(F)(F)F

>  <HIPPO Compound ID>  (1185) 
37704

>  <alias>  (1185) 
DYVSFCCXNNSJLQ-RXMQYKEDSA-N-P48

>  <subsites>  (1185) 


>  <placement_batch>  (1185) 
CpKRS_FrAncestor_bulkdock_iter2

>  <name>  (1185) 
DYVSFCCXNNSJLQ-RXMQYKEDSA-N-P48

$$$$
APMQLLXYJKBODN-UHFFFAOYSA-N-P14
     RDKit          3D

 16 17  0  0  0  0  0  0  0  0999 V2000
    1.6489  -14.8958   28.5764 C   0  0  0  0  0  0  0  0  0  0  0  0
    2.0477  -14.2993   27.2800 C   0  0  0  0  0  0  0  0  0  0  0  0
    1.1931  -13.5473   26.5645 N   0  0  0  0  0  0  0  0  0  0  0  0
    1.9349  -13.2045   25.4800 N   0  0  0  0  0  0  0  0  0  0  0  0
    1.2571  -12.6589   24.3237 C   0  0  0  0  0  0  0  0  0  0  0  0
    3.2705  -13.5022   25.6011 C   0  0  0  0  0  0  0  0  0  0  0  0
    4.3713  -13.0406   24.7682 C   0  0  0  0  0  0  0  0  0  0  0  0
    5.2663  -13.7441   24.5330 O   0  0  0  0  0  0  0  0  0  0  0  0
    4.1490  -11.5589   24.4167 N   0  0  0  0  0  0  0  0  0  0  0  0
    4.9350  -10.6639   23.6250 C   0  0  0  0  0  0  0  0  0  0  0  0
    4.5558   -9.2031   23.8050 C   0  0  0  0  0  0  0  0  0  0  0  0
    5.2226   -8.5289   22.6168 C   0  0  0  0  0  0  0  0  0  0  0  0
    5.2494   -9.5797   21.5085 C   0  0  0  0  0  0  0  0  0  0  0  0
    4.7628  -10.8837   22.1311 C   0  0  0  0  0  0  0  0  0  0  0  0
    3.3055  -14.4107   26.6416 C   0  0  0  0  0  0  0  0  0  0  0  0
    4.5774  -15.4164   27.1455 Cl  0  0  0  0  0  0  0  0  0  0  0  0
  1  2  1  0
  2  3  2  0
  3  4  1  0
  4  5  1  0
  4  6  1  0
  6  7  1  0
  7  8  2  0
  7  9  1  0
  9 10  1  0
 10 11  1  0
 11 12  1  0
 12 13  1  0
 13 14  1  0
  6 15  2  0
 15 16  1  0
 15  2  1  0
 14 10  1  0
M  END
>  <inchikey>  (1186) 
APMQLLXYJKBODN-UHFFFAOYSA-N

>  <tags>  (1186) 
fragmenstein_placed,CpKRS_FrAncestor_bulkdock_iter2

>  <ref_pdb>  (1186) 
x0502c

>  <energy_score>  (1186) 
-9.415199

>  <distance_score>  (1186) 
0.290742

>  <HIPPO Pose ID>  (1186) 
58603

>  <ref_mols>  (1186) 
x0421d

>  <smiles>  (1186) 
Cc1nn(C)c(C(=O)NC2CCCC2)c1Cl

>  <HIPPO Compound ID>  (1186) 
37705

>  <alias>  (1186) 
APMQLLXYJKBODN-UHFFFAOYSA-N-P14

>  <subsites>  (1186) 


>  <placement_batch>  (1186) 
CpKRS_FrAncestor_bulkdock_iter2

>  <name>  (1186) 
APMQLLXYJKBODN-UHFFFAOYSA-N-P14

$$$$
XAHVGYXMFWZIMP-UHFFFAOYSA-N-P14
     RDKit          3D

 18 19  0  0  0  0  0  0  0  0999 V2000
    1.6979  -14.9371   28.6210 C   0  0  0  0  0  0  0  0  0  0  0  0
    2.0942  -14.3423   27.3231 C   0  0  0  0  0  0  0  0  0  0  0  0
    1.2342  -13.5972   26.6087 N   0  0  0  0  0  0  0  0  0  0  0  0
    1.9677  -13.2591   25.5178 N   0  0  0  0  0  0  0  0  0  0  0  0
    1.2694  -12.7328   24.3641 C   0  0  0  0  0  0  0  0  0  0  0  0
    3.3070  -13.5559   25.6282 C   0  0  0  0  0  0  0  0  0  0  0  0
    4.4020  -13.1115   24.7727 C   0  0  0  0  0  0  0  0  0  0  0  0
    5.3017  -13.8113   24.5481 O   0  0  0  0  0  0  0  0  0  0  0  0
    4.1219  -11.6728   24.3144 N   0  0  0  0  0  0  0  0  0  0  0  0
    4.9356  -10.7573   23.5595 C   0  0  1  0  0  0  0  0  0  0  0  0
    4.8169  -11.0525   22.0684 C   0  0  0  0  0  0  0  0  0  0  0  0
    5.2786   -9.7663   21.4190 C   0  0  0  0  0  0  0  0  0  0  0  0
    4.6446   -8.6809   22.2682 C   0  0  0  0  0  0  0  0  0  0  0  0
    4.5981   -9.2432   23.7093 C   0  0  0  0  0  0  0  0  0  0  0  0
    5.6598   -8.5309   24.5616 C   0  0  0  0  0  0  0  0  0  0  0  0
    3.2193   -8.9746   24.3247 C   0  0  0  0  0  0  0  0  0  0  0  0
    3.3486  -14.4540   26.6776 C   0  0  0  0  0  0  0  0  0  0  0  0
    4.6225  -15.4590   27.1745 Cl  0  0  0  0  0  0  0  0  0  0  0  0
  1  2  1  0
  2  3  2  0
  3  4  1  0
  4  5  1  0
  4  6  1  0
  6  7  1  0
  7  8  2  0
  7  9  1  0
 10  9  1  1
 10 11  1  0
 11 12  1  0
 12 13  1  0
 13 14  1  0
 14 15  1  0
 14 16  1  0
  6 17  2  0
 17 18  1  0
 17  2  1  0
 14 10  1  0
M  END
>  <inchikey>  (1187) 
XAHVGYXMFWZIMP-UHFFFAOYSA-N

>  <tags>  (1187) 
fragmenstein_placed,CpKRS_FrAncestor_bulkdock_iter2

>  <ref_pdb>  (1187) 
x0502c

>  <energy_score>  (1187) 
-3.86661

>  <distance_score>  (1187) 
0.358876

>  <HIPPO Pose ID>  (1187) 
58611

>  <ref_mols>  (1187) 
x0421d

>  <smiles>  (1187) 
Cc1nn(C)c(C(=O)NC2CCCC2(C)C)c1Cl

>  <HIPPO Compound ID>  (1187) 
37707

>  <alias>  (1187) 
XAHVGYXMFWZIMP-UHFFFAOYSA-N-P14

>  <subsites>  (1187) 


>  <placement_batch>  (1187) 
CpKRS_FrAncestor_bulkdock_iter2

>  <name>  (1187) 
XAHVGYXMFWZIMP-UHFFFAOYSA-N-P14

$$$$
MSHSCFKZILKZTO-UHFFFAOYSA-N-P11
     RDKit          3D

 19 20  0  0  0  0  0  0  0  0999 V2000
    1.9815  -15.8750   28.2968 C   0  0  0  0  0  0  0  0  0  0  0  0
    2.1953  -14.9410   27.1679 C   0  0  0  0  0  0  0  0  0  0  0  0
    1.1729  -14.2426   26.6555 N   0  0  0  0  0  0  0  0  0  0  0  0
    1.7284  -13.6549   25.5691 N   0  0  0  0  0  0  0  0  0  0  0  0
    0.8166  -13.1808   24.5516 C   0  0  0  0  0  0  0  0  0  0  0  0
    3.1072  -13.6925   25.5424 C   0  0  0  0  0  0  0  0  0  0  0  0
    4.0321  -13.0077   24.6318 C   0  0  0  0  0  0  0  0  0  0  0  0
    5.0572  -13.4980   24.3790 O   0  0  0  0  0  0  0  0  0  0  0  0
    3.4010  -11.6953   24.1256 N   0  0  0  0  0  0  0  0  0  0  0  0
    3.9389  -10.6665   23.2767 C   0  0  2  0  0  0  0  0  0  0  0  0
    4.8397  -11.1596   22.1529 C   0  0  0  0  0  0  0  0  0  0  0  0
    5.4651   -9.8587   21.6869 C   0  0  0  0  0  0  0  0  0  0  0  0
    5.8034   -9.1270   22.9746 C   0  0  0  0  0  0  0  0  0  0  0  0
    4.8116   -9.6513   24.0324 C   0  0  1  0  0  0  0  0  0  0  0  0
    4.0773   -8.4732   24.6943 C   0  0  0  0  0  0  0  0  0  0  0  0
    2.6065   -8.7156   25.0139 C   0  0  0  0  0  0  0  0  0  0  0  0
    4.8539   -7.9254   25.8945 C   0  0  0  0  0  0  0  0  0  0  0  0
    3.4102  -14.6495   26.5018 C   0  0  0  0  0  0  0  0  0  0  0  0
    4.9096  -15.3588   26.8861 Cl  0  0  0  0  0  0  0  0  0  0  0  0
  1  2  1  0
  2  3  2  0
  3  4  1  0
  4  5  1  0
  4  6  1  0
  6  7  1  0
  7  8  2  0
  7  9  1  0
 10  9  1  1
 10 11  1  0
 11 12  1  0
 12 13  1  0
 13 14  1  0
 14 15  1  6
 15 16  1  0
 15 17  1  0
  6 18  2  0
 18 19  1  0
 18  2  1  0
 14 10  1  0
M  END
>  <inchikey>  (1188) 
MSHSCFKZILKZTO-UHFFFAOYSA-N

>  <tags>  (1188) 
fragmenstein_placed,CpKRS_FrAncestor_bulkdock_iter2

>  <ref_pdb>  (1188) 
x0502c

>  <energy_score>  (1188) 
-8.569224

>  <distance_score>  (1188) 
0.419114

>  <HIPPO Pose ID>  (1188) 
58612

>  <ref_mols>  (1188) 
x0421a

>  <smiles>  (1188) 
Cc1nn(C)c(C(=O)NC2CCCC2C(C)C)c1Cl

>  <HIPPO Compound ID>  (1188) 
37708

>  <alias>  (1188) 
MSHSCFKZILKZTO-UHFFFAOYSA-N-P11

>  <subsites>  (1188) 


>  <placement_batch>  (1188) 
CpKRS_FrAncestor_bulkdock_iter2

>  <name>  (1188) 
MSHSCFKZILKZTO-UHFFFAOYSA-N-P11

$$$$
ZYZWEKHJXFUSHX-UHFFFAOYSA-N-P13
     RDKit          3D

 18 19  0  0  0  0  0  0  0  0999 V2000
    1.7064  -15.3541   28.4225 C   0  0  0  0  0  0  0  0  0  0  0  0
    2.0313  -14.6307   27.1703 C   0  0  0  0  0  0  0  0  0  0  0  0
    1.1264  -13.8221   26.5958 N   0  0  0  0  0  0  0  0  0  0  0  0
    1.7916  -13.3123   25.5329 N   0  0  0  0  0  0  0  0  0  0  0  0
    1.0683  -12.4801   24.5965 C   0  0  0  0  0  0  0  0  0  0  0  0
    3.1109  -13.6801   25.4742 C   0  0  0  0  0  0  0  0  0  0  0  0
    4.1131  -13.1908   24.5530 C   0  0  0  0  0  0  0  0  0  0  0  0
    4.7758  -13.9305   23.9477 O   0  0  0  0  0  0  0  0  0  0  0  0
    4.1106  -11.6527   24.5862 N   0  0  0  0  0  0  0  0  0  0  0  0
    4.9864  -10.7029   23.9532 C   0  0  0  0  0  0  0  0  0  0  0  0
    4.9122   -9.2685   24.4890 C   0  0  2  0  0  0  0  0  0  0  0  0
    3.4887   -8.7567   24.6856 C   0  0  0  0  0  0  0  0  0  0  0  0
    5.6462   -8.4669   23.4056 C   0  0  0  0  0  0  0  0  0  0  0  0
    5.4495   -9.2340   22.0965 C   0  0  0  0  0  0  0  0  0  0  0  0
    4.6971  -10.5140   22.4687 C   0  0  1  0  0  0  0  0  0  0  0  0
    5.1053  -11.7029   21.6396 C   0  0  0  0  0  0  0  0  0  0  0  0
    3.2561  -14.6306   26.4626 C   0  0  0  0  0  0  0  0  0  0  0  0
    4.6336  -15.5437   26.8470 Cl  0  0  0  0  0  0  0  0  0  0  0  0
  1  2  1  0
  2  3  2  0
  3  4  1  0
  4  5  1  0
  4  6  1  0
  6  7  1  0
  7  8  2  0
  7  9  1  0
  9 10  1  0
 10 11  1  0
 11 12  1  6
 11 13  1  0
 13 14  1  0
 14 15  1  0
 15 16  1  6
  6 17  2  0
 17 18  1  0
 17  2  1  0
 15 10  1  0
M  END
>  <inchikey>  (1189) 
ZYZWEKHJXFUSHX-UHFFFAOYSA-N

>  <tags>  (1189) 
fragmenstein_placed,CpKRS_FrAncestor_bulkdock_iter2

>  <ref_pdb>  (1189) 
x0502c

>  <energy_score>  (1189) 
-0.456037

>  <distance_score>  (1189) 
0.473054

>  <HIPPO Pose ID>  (1189) 
58622

>  <ref_mols>  (1189) 
x0421c

>  <smiles>  (1189) 
Cc1nn(C)c(C(=O)NC2C(C)CCC2C)c1Cl

>  <HIPPO Compound ID>  (1189) 
37710

>  <alias>  (1189) 
ZYZWEKHJXFUSHX-UHFFFAOYSA-N-P13

>  <subsites>  (1189) 


>  <placement_batch>  (1189) 
CpKRS_FrAncestor_bulkdock_iter2

>  <name>  (1189) 
ZYZWEKHJXFUSHX-UHFFFAOYSA-N-P13

$$$$
KQSXLURCOAGUCW-UHFFFAOYSA-N-P11
     RDKit          3D

 19 20  0  0  0  0  0  0  0  0999 V2000
    1.4963  -15.9478   28.1715 C   0  0  0  0  0  0  0  0  0  0  0  0
    1.9727  -14.9941   27.1493 C   0  0  0  0  0  0  0  0  0  0  0  0
    1.1089  -14.1625   26.5449 N   0  0  0  0  0  0  0  0  0  0  0  0
    1.8776  -13.5716   25.5995 N   0  0  0  0  0  0  0  0  0  0  0  0
    1.2146  -12.8529   24.5352 C   0  0  0  0  0  0  0  0  0  0  0  0
    3.2234  -13.7963   25.7507 C   0  0  0  0  0  0  0  0  0  0  0  0
    4.3181  -13.1754   25.0301 C   0  0  0  0  0  0  0  0  0  0  0  0
    5.2229  -13.8106   24.6771 O   0  0  0  0  0  0  0  0  0  0  0  0
    4.0457  -11.6742   24.8935 N   0  0  0  0  0  0  0  0  0  0  0  0
    4.7805  -10.6567   24.2142 C   0  0  1  0  0  0  0  0  0  0  0  0
    4.6487  -10.8785   22.7028 C   0  0  0  0  0  0  0  0  0  0  0  0
    4.5977   -9.4805   22.1117 C   0  0  2  0  0  0  0  0  0  0  0  0
    5.5060   -9.3199   20.9432 C   0  0  0  0  0  0  0  0  0  0  0  0
    5.0043   -8.5451   23.2255 C   0  0  0  0  0  0  0  0  0  0  0  0
    4.3826   -9.1801   24.4699 C   0  0  0  0  0  0  0  0  0  0  0  0
    5.0490   -8.4951   25.6629 C   0  0  0  0  0  0  0  0  0  0  0  0
    2.8579   -8.9934   24.5581 C   0  0  0  0  0  0  0  0  0  0  0  0
    3.2909  -14.8227   26.6699 C   0  0  0  0  0  0  0  0  0  0  0  0
    4.6594  -15.6819   27.1876 Cl  0  0  0  0  0  0  0  0  0  0  0  0
  1  2  1  0
  2  3  2  0
  3  4  1  0
  4  5  1  0
  4  6  1  0
  6  7  1  0
  7  8  2  0
  7  9  1  0
 10  9  1  1
 10 11  1  0
 11 12  1  0
 12 13  1  6
 12 14  1  0
 14 15  1  0
 15 16  1  0
 15 17  1  0
  6 18  2  0
 18 19  1  0
 18  2  1  0
 15 10  1  0
M  END
>  <inchikey>  (1190) 
KQSXLURCOAGUCW-UHFFFAOYSA-N

>  <tags>  (1190) 
fragmenstein_placed,CpKRS_FrAncestor_bulkdock_iter2

>  <ref_pdb>  (1190) 
x0502c

>  <energy_score>  (1190) 
-4.808497

>  <distance_score>  (1190) 
0.589995

>  <HIPPO Pose ID>  (1190) 
58624

>  <ref_mols>  (1190) 
x0421a

>  <smiles>  (1190) 
Cc1nn(C)c(C(=O)NC2CC(C)CC2(C)C)c1Cl

>  <HIPPO Compound ID>  (1190) 
37711

>  <alias>  (1190) 
KQSXLURCOAGUCW-UHFFFAOYSA-N-P11

>  <subsites>  (1190) 


>  <placement_batch>  (1190) 
CpKRS_FrAncestor_bulkdock_iter2

>  <name>  (1190) 
KQSXLURCOAGUCW-UHFFFAOYSA-N-P11

$$$$
QNJKGQGAOQYJAP-UHFFFAOYSA-N-P14
     RDKit          3D

 18 19  0  0  0  0  0  0  0  0999 V2000
    1.5073  -14.9213   28.9676 C   0  0  0  0  0  0  0  0  0  0  0  0
    1.8390  -14.4198   27.6131 C   0  0  0  0  0  0  0  0  0  0  0  0
    0.9545  -13.7094   26.8917 N   0  0  0  0  0  0  0  0  0  0  0  0
    1.6559  -13.4063   25.7707 N   0  0  0  0  0  0  0  0  0  0  0  0
    0.9276  -12.8877   24.6326 C   0  0  0  0  0  0  0  0  0  0  0  0
    2.9909  -13.7175   25.8511 C   0  0  0  0  0  0  0  0  0  0  0  0
    4.0861  -13.2948   24.9938 C   0  0  0  0  0  0  0  0  0  0  0  0
    5.0107  -13.9813   24.8453 O   0  0  0  0  0  0  0  0  0  0  0  0
    3.8151  -11.8716   24.4935 N   0  0  0  0  0  0  0  0  0  0  0  0
    4.6500  -10.9689   23.7949 C   0  0  1  0  0  0  0  0  0  0  0  0
    4.9647  -11.2946   22.3492 C   0  0  0  0  0  0  0  0  0  0  0  0
    5.5260   -9.9704   21.8185 C   0  0  0  0  0  0  0  0  0  0  0  0
    5.2280   -8.8953   22.8891 C   0  0  0  0  0  0  0  0  0  0  0  0
    6.3665   -8.5412   23.8593 C   0  0  0  0  0  0  0  0  0  0  0  0
    4.8467   -7.6251   22.1761 C   0  0  0  0  0  0  0  0  0  0  0  0
    4.1197   -9.5449   23.7180 C   0  0  0  0  0  0  0  0  0  0  0  0
    3.0641  -14.5774   26.9287 C   0  0  0  0  0  0  0  0  0  0  0  0
    4.3593  -15.5543   27.4284 Cl  0  0  0  0  0  0  0  0  0  0  0  0
  1  2  1  0
  2  3  2  0
  3  4  1  0
  4  5  1  0
  4  6  1  0
  6  7  1  0
  7  8  2  0
  7  9  1  0
 10  9  1  6
 10 11  1  0
 11 12  1  0
 12 13  1  0
 13 14  1  0
 13 15  1  0
 13 16  1  0
  6 17  2  0
 17 18  1  0
 17  2  1  0
 16 10  1  0
M  END
>  <inchikey>  (1191) 
QNJKGQGAOQYJAP-UHFFFAOYSA-N

>  <tags>  (1191) 
fragmenstein_placed,CpKRS_FrAncestor_bulkdock_iter2

>  <ref_pdb>  (1191) 
x0502c

>  <energy_score>  (1191) 
-7.714858

>  <distance_score>  (1191) 
0.556406

>  <HIPPO Pose ID>  (1191) 
58631

>  <ref_mols>  (1191) 
x0421d

>  <smiles>  (1191) 
Cc1nn(C)c(C(=O)NC2CCC(C)(C)C2)c1Cl

>  <HIPPO Compound ID>  (1191) 
37712

>  <alias>  (1191) 
QNJKGQGAOQYJAP-UHFFFAOYSA-N-P14

>  <subsites>  (1191) 


>  <placement_batch>  (1191) 
CpKRS_FrAncestor_bulkdock_iter2

>  <name>  (1191) 
QNJKGQGAOQYJAP-UHFFFAOYSA-N-P14

$$$$
QKDOFPTWXDCYFH-IONNQARKSA-N-P13
     RDKit          3D

 17 18  0  0  0  0  0  0  0  0999 V2000
    1.6025  -15.3109   28.4939 C   0  0  0  0  0  0  0  0  0  0  0  0
    1.9013  -14.6586   27.1964 C   0  0  0  0  0  0  0  0  0  0  0  0
    0.9886  -13.8706   26.6035 N   0  0  0  0  0  0  0  0  0  0  0  0
    1.6305  -13.4214   25.4995 N   0  0  0  0  0  0  0  0  0  0  0  0
    0.9137  -12.5838   24.5636 C   0  0  0  0  0  0  0  0  0  0  0  0
    2.9356  -13.8223   25.4188 C   0  0  0  0  0  0  0  0  0  0  0  0
    3.9200  -13.3795   24.4629 C   0  0  0  0  0  0  0  0  0  0  0  0
    4.4915  -14.1340   23.7891 O   0  0  0  0  0  0  0  0  0  0  0  0
    4.0852  -11.8618   24.6187 N   0  0  0  0  0  0  0  0  0  0  0  0
    5.0463  -10.9700   24.0519 C   0  0  2  0  0  0  0  0  0  0  0  0
    4.8478   -9.5120   24.4436 C   0  0  0  0  0  0  0  0  0  0  0  0
    5.8259   -8.8100   23.5224 C   0  0  0  0  0  0  0  0  0  0  0  0
    5.7028   -9.5796   22.2034 C   0  0  2  0  0  0  0  0  0  0  0  0
    4.8522   -8.7961   21.2405 C   0  0  0  0  0  0  0  0  0  0  0  0
    5.0587  -10.9334   22.5338 C   0  0  0  0  0  0  0  0  0  0  0  0
    3.1088  -14.7059   26.4614 C   0  0  0  0  0  0  0  0  0  0  0  0
    4.5045  -15.5805   26.8701 Cl  0  0  0  0  0  0  0  0  0  0  0  0
  1  2  1  0
  2  3  2  0
  3  4  1  0
  4  5  1  0
  4  6  1  0
  6  7  1  0
  7  8  2  0
  7  9  1  0
 10  9  1  6
 10 11  1  0
 11 12  1  0
 12 13  1  0
 13 14  1  6
 13 15  1  0
  6 16  2  0
 16 17  1  0
 16  2  1  0
 15 10  1  0
M  END
>  <inchikey>  (1192) 
QKDOFPTWXDCYFH-UHFFFAOYSA-N

>  <tags>  (1192) 
fragmenstein_placed,CpKRS_FrAncestor_bulkdock_iter2

>  <ref_pdb>  (1192) 
x0502c

>  <energy_score>  (1192) 
-1.085852

>  <distance_score>  (1192) 
0.598915

>  <HIPPO Pose ID>  (1192) 
58654

>  <ref_mols>  (1192) 
x0421c

>  <smiles>  (1192) 
Cc1nn(C)c(C(=O)N[C@@H]2CC[C@H](C)C2)c1Cl

>  <HIPPO Compound ID>  (1192) 
37709

>  <alias>  (1192) 
QKDOFPTWXDCYFH-IONNQARKSA-N-P13

>  <subsites>  (1192) 


>  <placement_batch>  (1192) 
CpKRS_FrAncestor_bulkdock_iter2

>  <name>  (1192) 
QKDOFPTWXDCYFH-IONNQARKSA-N-P13

$$$$
APRLYGWQKYNIJC-UHFFFAOYSA-N-P44
     RDKit          3D

 17 18  0  0  0  0  0  0  0  0999 V2000
   -7.2307  -12.6779   49.7332 C   0  0  0  0  0  0  0  0  0  0  0  0
   -8.1148  -12.4551   48.5624 C   0  0  0  0  0  0  0  0  0  0  0  0
   -7.9001  -11.4196   47.7456 N   0  0  0  0  0  0  0  0  0  0  0  0
   -8.8474  -11.5563   46.7941 N   0  0  0  0  0  0  0  0  0  0  0  0
   -8.8348  -10.6353   45.6781 C   0  0  0  0  0  0  0  0  0  0  0  0
   -9.7183  -12.6072   47.0026 C   0  0  0  0  0  0  0  0  0  0  0  0
  -10.8705  -12.8719   46.1434 C   0  0  0  0  0  0  0  0  0  0  0  0
  -11.3099  -11.9987   45.5110 O   0  0  0  0  0  0  0  0  0  0  0  0
  -11.3212  -14.3355   46.2688 N   0  0  0  0  0  0  0  0  0  0  0  0
  -12.4671  -15.0136   45.7153 C   0  0  0  0  0  0  0  0  0  0  0  0
  -12.3331  -15.2371   44.2017 C   0  0  0  0  0  0  0  0  0  0  0  0
  -13.6686  -15.6051   43.5528 C   0  0  0  0  0  0  0  0  0  0  0  0
  -13.7998  -17.0983   43.7984 C   0  0  0  0  0  0  0  0  0  0  0  0
  -12.3834  -17.6317   43.6462 C   0  0  0  0  0  0  0  0  0  0  0  0
  -11.4472  -16.4449   43.8761 C   0  0  0  0  0  0  0  0  0  0  0  0
   -9.2357  -13.2155   48.1504 C   0  0  0  0  0  0  0  0  0  0  0  0
   -9.8276  -14.5734   48.9871 Cl  0  0  0  0  0  0  0  0  0  0  0  0
  1  2  1  0
  2  3  2  0
  3  4  1  0
  4  5  1  0
  4  6  1  0
  6  7  1  0
  7  8  2  0
  7  9  1  0
  9 10  1  0
 10 11  1  0
 11 12  1  0
 12 13  1  0
 13 14  1  0
 14 15  1  0
  6 16  2  0
 16 17  1  0
 16  2  1  0
 15 11  1  0
M  END
>  <inchikey>  (1193) 
APRLYGWQKYNIJC-UHFFFAOYSA-N

>  <tags>  (1193) 
fragmenstein_placed,CpKRS_FrAncestor_bulkdock_iter2

>  <ref_pdb>  (1193) 
x0502c

>  <energy_score>  (1193) 
-20.851294

>  <distance_score>  (1193) 
0.377955

>  <HIPPO Pose ID>  (1193) 
58661

>  <ref_mols>  (1193) 
x0502b

>  <smiles>  (1193) 
Cc1nn(C)c(C(=O)NCC2CCCC2)c1Cl

>  <HIPPO Compound ID>  (1193) 
37715

>  <alias>  (1193) 
APRLYGWQKYNIJC-UHFFFAOYSA-N-P44

>  <subsites>  (1193) 


>  <placement_batch>  (1193) 
CpKRS_FrAncestor_bulkdock_iter2

>  <name>  (1193) 
APRLYGWQKYNIJC-UHFFFAOYSA-N-P44

$$$$
AAMXRQMCUFZBKG-UHFFFAOYSA-N-P44
     RDKit          3D

 18 19  0  0  0  0  0  0  0  0999 V2000
   -7.1670  -12.6489   49.7344 C   0  0  0  0  0  0  0  0  0  0  0  0
   -8.0699  -12.4422   48.5750 C   0  0  0  0  0  0  0  0  0  0  0  0
   -7.8728  -11.4144   47.7436 N   0  0  0  0  0  0  0  0  0  0  0  0
   -8.8383  -11.5617   46.8122 N   0  0  0  0  0  0  0  0  0  0  0  0
   -8.8570  -10.6443   45.6937 C   0  0  0  0  0  0  0  0  0  0  0  0
   -9.6958  -12.6185   47.0419 C   0  0  0  0  0  0  0  0  0  0  0  0
  -10.8605  -12.9000   46.2066 C   0  0  0  0  0  0  0  0  0  0  0  0
  -11.3274  -12.0335   45.5847 O   0  0  0  0  0  0  0  0  0  0  0  0
  -11.2913  -14.3682   46.3484 N   0  0  0  0  0  0  0  0  0  0  0  0
  -12.4442  -15.0601   45.8296 C   0  0  0  0  0  0  0  0  0  0  0  0
  -12.4246  -15.1771   44.2983 C   0  0  2  0  0  0  0  0  0  0  0  0
  -13.7990  -15.5668   43.7476 C   0  0  0  0  0  0  0  0  0  0  0  0
  -13.7880  -17.0852   43.7629 C   0  0  0  0  0  0  0  0  0  0  0  0
  -12.3763  -17.4442   43.3075 C   0  0  1  0  0  0  0  0  0  0  0  0
  -12.2953  -17.5908   41.7882 C   0  0  0  0  0  0  0  0  0  0  0  0
  -11.4868  -16.2974   43.8144 C   0  0  0  0  0  0  0  0  0  0  0  0
   -9.1928  -13.2124   48.1882 C   0  0  0  0  0  0  0  0  0  0  0  0
   -9.7672  -14.5642   49.0468 Cl  0  0  0  0  0  0  0  0  0  0  0  0
  1  2  1  0
  2  3  2  0
  3  4  1  0
  4  5  1  0
  4  6  1  0
  6  7  1  0
  7  8  2  0
  7  9  1  0
  9 10  1  0
 11 10  1  1
 11 12  1  0
 12 13  1  0
 13 14  1  0
 14 15  1  6
 14 16  1  0
  6 17  2  0
 17 18  1  0
 17  2  1  0
 16 11  1  0
M  END
>  <inchikey>  (1194) 
AAMXRQMCUFZBKG-UHFFFAOYSA-N

>  <tags>  (1194) 
fragmenstein_placed,CpKRS_FrAncestor_bulkdock_iter2

>  <ref_pdb>  (1194) 
x0502c

>  <energy_score>  (1194) 
-11.649338

>  <distance_score>  (1194) 
0.392479

>  <HIPPO Pose ID>  (1194) 
58670

>  <ref_mols>  (1194) 
x0502b

>  <smiles>  (1194) 
Cc1nn(C)c(C(=O)NCC2CCC(C)C2)c1Cl

>  <HIPPO Compound ID>  (1194) 
37718

>  <alias>  (1194) 
AAMXRQMCUFZBKG-UHFFFAOYSA-N-P44

>  <subsites>  (1194) 


>  <placement_batch>  (1194) 
CpKRS_FrAncestor_bulkdock_iter2

>  <name>  (1194) 
AAMXRQMCUFZBKG-UHFFFAOYSA-N-P44

$$$$
DAHKWNSQAHNQNY-UHFFFAOYSA-N-P44
     RDKit          3D

 19 20  0  0  0  0  0  0  0  0999 V2000
   -7.2392  -12.6869   49.7407 C   0  0  0  0  0  0  0  0  0  0  0  0
   -8.1101  -12.4473   48.5632 C   0  0  0  0  0  0  0  0  0  0  0  0
   -7.8764  -11.4097   47.7549 N   0  0  0  0  0  0  0  0  0  0  0  0
   -8.8163  -11.5289   46.7941 N   0  0  0  0  0  0  0  0  0  0  0  0
   -8.7826  -10.5969   45.6876 C   0  0  0  0  0  0  0  0  0  0  0  0
   -9.7010  -12.5724   46.9865 C   0  0  0  0  0  0  0  0  0  0  0  0
  -10.8478  -12.8200   46.1128 C   0  0  0  0  0  0  0  0  0  0  0  0
  -11.2300  -11.9580   45.4302 O   0  0  0  0  0  0  0  0  0  0  0  0
  -11.3614  -14.2577   46.2822 N   0  0  0  0  0  0  0  0  0  0  0  0
  -12.5139  -14.9126   45.7175 C   0  0  0  0  0  0  0  0  0  0  0  0
  -12.3292  -15.2241   44.2238 C   0  0  1  0  0  0  0  0  0  0  0  0
  -11.4533  -16.4707   44.0022 C   0  0  0  0  0  0  0  0  0  0  0  0
  -12.3851  -17.6040   43.5673 C   0  0  0  0  0  0  0  0  0  0  0  0
  -13.7813  -17.0650   43.7751 C   0  0  0  0  0  0  0  0  0  0  0  0
  -14.6729  -17.6368   42.9470 F   0  0  0  0  0  0  0  0  0  0  0  0
  -14.1883  -17.2995   45.0436 F   0  0  0  0  0  0  0  0  0  0  0  0
  -13.6542  -15.5779   43.5391 C   0  0  0  0  0  0  0  0  0  0  0  0
   -9.2346  -13.1934   48.1352 C   0  0  0  0  0  0  0  0  0  0  0  0
   -9.8406  -14.5543   48.9574 Cl  0  0  0  0  0  0  0  0  0  0  0  0
  1  2  1  0
  2  3  2  0
  3  4  1  0
  4  5  1  0
  4  6  1  0
  6  7  1  0
  7  8  2  0
  7  9  1  0
  9 10  1  0
 11 10  1  1
 11 12  1  0
 12 13  1  0
 13 14  1  0
 14 15  1  0
 14 16  1  0
 14 17  1  0
  6 18  2  0
 18 19  1  0
 18  2  1  0
 17 11  1  0
M  END
>  <inchikey>  (1195) 
DAHKWNSQAHNQNY-UHFFFAOYSA-N

>  <tags>  (1195) 
fragmenstein_placed,CpKRS_FrAncestor_bulkdock_iter2

>  <ref_pdb>  (1195) 
x0502c

>  <energy_score>  (1195) 
-22.325178

>  <distance_score>  (1195) 
0.41857

>  <HIPPO Pose ID>  (1195) 
58673

>  <ref_mols>  (1195) 
x0502b

>  <smiles>  (1195) 
Cc1nn(C)c(C(=O)NCC2CCC(F)(F)C2)c1Cl

>  <HIPPO Compound ID>  (1195) 
37719

>  <alias>  (1195) 
DAHKWNSQAHNQNY-UHFFFAOYSA-N-P44

>  <subsites>  (1195) 


>  <placement_batch>  (1195) 
CpKRS_FrAncestor_bulkdock_iter2

>  <name>  (1195) 
DAHKWNSQAHNQNY-UHFFFAOYSA-N-P44

$$$$
MIASGZBZOMQCJA-QMMMGPOBSA-N-P44
     RDKit          3D

 18 19  0  0  0  0  0  0  0  0999 V2000
   -7.2717  -12.6546   49.7259 C   0  0  0  0  0  0  0  0  0  0  0  0
   -8.1533  -12.4637   48.5476 C   0  0  0  0  0  0  0  0  0  0  0  0
   -7.9463  -11.4420   47.7125 N   0  0  0  0  0  0  0  0  0  0  0  0
   -8.8833  -11.6111   46.7559 N   0  0  0  0  0  0  0  0  0  0  0  0
   -8.8686  -10.7130   45.6212 C   0  0  0  0  0  0  0  0  0  0  0  0
   -9.7485  -12.6650   46.9823 C   0  0  0  0  0  0  0  0  0  0  0  0
  -10.8933  -12.9581   46.1186 C   0  0  0  0  0  0  0  0  0  0  0  0
  -11.2860  -12.1217   45.4093 O   0  0  0  0  0  0  0  0  0  0  0  0
  -11.4104  -14.3877   46.3563 N   0  0  0  0  0  0  0  0  0  0  0  0
  -12.5888  -15.0657   45.8366 C   0  0  1  0  0  0  0  0  0  0  0  0
  -13.8319  -14.3074   46.3011 C   0  0  0  0  0  0  0  0  0  0  0  0
  -12.4952  -15.2138   44.2953 C   0  0  0  0  0  0  0  0  0  0  0  0
  -13.7705  -15.6889   43.5930 C   0  0  0  0  0  0  0  0  0  0  0  0
  -13.7784  -17.1902   43.8178 C   0  0  0  0  0  0  0  0  0  0  0  0
  -12.3147  -17.5961   43.7187 C   0  0  0  0  0  0  0  0  0  0  0  0
  -11.4974  -16.3168   43.9075 C   0  0  0  0  0  0  0  0  0  0  0  0
   -9.2639  -13.2440   48.1452 C   0  0  0  0  0  0  0  0  0  0  0  0
   -9.8389  -14.5925   49.0091 Cl  0  0  0  0  0  0  0  0  0  0  0  0
  1  2  1  0
  2  3  2  0
  3  4  1  0
  4  5  1  0
  4  6  1  0
  6  7  1  0
  7  8  2  0
  7  9  1  0
  9 10  1  0
 10 11  1  6
 10 12  1  0
 12 13  1  0
 13 14  1  0
 14 15  1  0
 15 16  1  0
  6 17  2  0
 17 18  1  0
 17  2  1  0
 16 12  1  0
M  END
>  <inchikey>  (1196) 
MIASGZBZOMQCJA-UHFFFAOYSA-N

>  <tags>  (1196) 
fragmenstein_placed,CpKRS_FrAncestor_bulkdock_iter2

>  <ref_pdb>  (1196) 
x0502c

>  <energy_score>  (1196) 
-7.626906

>  <distance_score>  (1196) 
0.362845

>  <HIPPO Pose ID>  (1196) 
58682

>  <ref_mols>  (1196) 
x0502b

>  <smiles>  (1196) 
Cc1nn(C)c(C(=O)N[C@@H](C)C2CCCC2)c1Cl

>  <HIPPO Compound ID>  (1196) 
37722

>  <alias>  (1196) 
MIASGZBZOMQCJA-QMMMGPOBSA-N-P44

>  <subsites>  (1196) 


>  <placement_batch>  (1196) 
CpKRS_FrAncestor_bulkdock_iter2

>  <name>  (1196) 
MIASGZBZOMQCJA-QMMMGPOBSA-N-P44

$$$$
PERVTIHCMDLJLN-UHFFFAOYSA-N-P48
     RDKit          3D

 17 17  0  0  0  0  0  0  0  0999 V2000
    1.5482  -15.2385   28.9643 C   0  0  0  0  0  0  0  0  0  0  0  0
    1.8682  -14.6165   27.6572 C   0  0  0  0  0  0  0  0  0  0  0  0
    0.9736  -13.8241   27.0547 N   0  0  0  0  0  0  0  0  0  0  0  0
    1.5897  -13.4373   25.9182 N   0  0  0  0  0  0  0  0  0  0  0  0
    0.8128  -12.7538   24.9088 C   0  0  0  0  0  0  0  0  0  0  0  0
    2.8798  -13.8905   25.8037 C   0  0  0  0  0  0  0  0  0  0  0  0
    3.8090  -13.6674   24.7142 C   0  0  0  0  0  0  0  0  0  0  0  0
    4.3864  -14.5784   24.2765 O   0  0  0  0  0  0  0  0  0  0  0  0
    3.8778  -12.1709   24.3472 N   0  0  0  0  0  0  0  0  0  0  0  0
    4.6119  -11.4880   23.2865 C   0  0  1  0  0  0  0  0  0  0  0  0
    4.4385  -12.2786   21.9970 C   0  0  0  0  0  0  0  0  0  0  0  0
    4.2998   -9.9791   23.1087 C   0  0  0  0  0  0  0  0  0  0  0  0
    4.5918   -9.1966   24.3847 C   0  0  0  0  0  0  0  0  0  0  0  0
    5.0799   -9.3425   21.9528 C   0  0  0  0  0  0  0  0  0  0  0  0
    2.9668   -9.8088   22.8400 F   0  0  0  0  0  0  0  0  0  0  0  0
    3.0494  -14.7274   26.8914 C   0  0  0  0  0  0  0  0  0  0  0  0
    4.3949  -15.6875   27.2731 Cl  0  0  0  0  0  0  0  0  0  0  0  0
  1  2  1  0
  2  3  2  0
  3  4  1  0
  4  5  1  0
  4  6  1  0
  6  7  1  0
  7  8  2  0
  7  9  1  0
  9 10  1  0
 10 11  1  6
 10 12  1  0
 12 13  1  0
 12 14  1  0
 12 15  1  0
  6 16  2  0
 16 17  1  0
 16  2  1  0
M  END
>  <inchikey>  (1197) 
PERVTIHCMDLJLN-UHFFFAOYSA-N

>  <tags>  (1197) 
fragmenstein_placed,CpKRS_FrAncestor_bulkdock_iter2

>  <ref_pdb>  (1197) 
x0502c

>  <energy_score>  (1197) 
-15.498599

>  <distance_score>  (1197) 
0.745944

>  <HIPPO Pose ID>  (1197) 
58687

>  <ref_mols>  (1197) 
x0504a

>  <smiles>  (1197) 
Cc1nn(C)c(C(=O)NC(C)C(C)(C)F)c1Cl

>  <HIPPO Compound ID>  (1197) 
37724

>  <alias>  (1197) 
PERVTIHCMDLJLN-UHFFFAOYSA-N-P48

>  <subsites>  (1197) 


>  <placement_batch>  (1197) 
CpKRS_FrAncestor_bulkdock_iter2

>  <name>  (1197) 
PERVTIHCMDLJLN-UHFFFAOYSA-N-P48

$$$$
SEJQJTPRUIKKLU-UHFFFAOYSA-N-P47
     RDKit          3D

 18 18  0  0  0  0  0  0  0  0999 V2000
    3.7909    2.2633   46.6387 C   0  0  0  0  0  0  0  0  0  0  0  0
    3.3240    3.4887   45.9791 C   0  0  0  0  0  0  0  0  0  0  0  0
    2.6743    4.4272   46.6710 N   0  0  0  0  0  0  0  0  0  0  0  0
    2.2948    5.3231   45.7355 N   0  0  0  0  0  0  0  0  0  0  0  0
    1.4710    6.4246   46.1755 C   0  0  0  0  0  0  0  0  0  0  0  0
    2.7138    5.0031   44.4667 C   0  0  0  0  0  0  0  0  0  0  0  0
    2.3883    5.6322   43.2007 C   0  0  0  0  0  0  0  0  0  0  0  0
    2.1657    4.9282   42.3029 O   0  0  0  0  0  0  0  0  0  0  0  0
    2.4560    7.1652   43.2705 N   0  0  0  0  0  0  0  0  0  0  0  0
    2.3554    8.1771   42.2045 C   0  0  0  0  0  0  0  0  0  0  0  0
    1.4609    7.6764   41.0616 C   0  0  0  0  0  0  0  0  0  0  0  0
    1.7231    9.4621   42.7546 C   0  0  0  0  0  0  0  0  0  0  0  0
    3.7898    8.4139   41.6675 C   0  0  0  0  0  0  0  0  0  0  0  0
    3.9229    9.2558   40.4205 C   0  0  0  0  0  0  0  0  0  0  0  0
    4.4008    7.2160   41.4478 F   0  0  0  0  0  0  0  0  0  0  0  0
    4.5275    8.9926   42.6512 F   0  0  0  0  0  0  0  0  0  0  0  0
    3.4177    3.8176   44.6206 C   0  0  0  0  0  0  0  0  0  0  0  0
    4.2130    2.8609   43.4579 Cl  0  0  0  0  0  0  0  0  0  0  0  0
  1  2  1  0
  2  3  2  0
  3  4  1  0
  4  5  1  0
  4  6  1  0
  6  7  1  0
  7  8  2  0
  7  9  1  0
  9 10  1  0
 10 11  1  0
 10 12  1  0
 10 13  1  0
 13 14  1  0
 13 15  1  0
 13 16  1  0
  6 17  2  0
 17 18  1  0
 17  2  1  0
M  END
>  <inchikey>  (1198) 
SEJQJTPRUIKKLU-UHFFFAOYSA-N

>  <tags>  (1198) 
fragmenstein_placed,CpKRS_FrAncestor_bulkdock_iter2

>  <ref_pdb>  (1198) 
x0502c

>  <energy_score>  (1198) 
-18.195272

>  <distance_score>  (1198) 
0.944069

>  <HIPPO Pose ID>  (1198) 
58692

>  <ref_mols>  (1198) 
x0504c

>  <smiles>  (1198) 
Cc1nn(C)c(C(=O)NC(C)(C)C(C)(F)F)c1Cl

>  <HIPPO Compound ID>  (1198) 
37725

>  <alias>  (1198) 
SEJQJTPRUIKKLU-UHFFFAOYSA-N-P47

>  <subsites>  (1198) 


>  <placement_batch>  (1198) 
CpKRS_FrAncestor_bulkdock_iter2

>  <name>  (1198) 
SEJQJTPRUIKKLU-UHFFFAOYSA-N-P47

$$$$
ZDANMYUTBKCTJB-UHFFFAOYSA-N-P49
     RDKit          3D

 19 19  0  0  0  0  0  0  0  0999 V2000
    1.6802  -15.6340   28.4166 C   0  0  0  0  0  0  0  0  0  0  0  0
    1.9661  -14.7173   27.2891 C   0  0  0  0  0  0  0  0  0  0  0  0
    1.0378  -13.8550   26.8523 N   0  0  0  0  0  0  0  0  0  0  0  0
    1.6553  -13.2186   25.8256 N   0  0  0  0  0  0  0  0  0  0  0  0
    0.8506  -12.3560   24.9887 C   0  0  0  0  0  0  0  0  0  0  0  0
    2.9777  -13.5598   25.6623 C   0  0  0  0  0  0  0  0  0  0  0  0
    3.9720  -13.0209   24.7387 C   0  0  0  0  0  0  0  0  0  0  0  0
    4.7263  -13.7587   24.2470 O   0  0  0  0  0  0  0  0  0  0  0  0
    3.8816  -11.4826   24.6577 N   0  0  0  0  0  0  0  0  0  0  0  0
    4.6622  -10.5171   23.8595 C   0  0  1  0  0  0  0  0  0  0  0  0
    4.3874  -10.6345   22.3455 C   0  0  0  0  0  0  0  0  0  0  0  0
    5.0173   -9.5194   21.4970 C   0  0  0  0  0  0  0  0  0  0  0  0
    4.8930  -11.9678   21.8279 C   0  0  0  0  0  0  0  0  0  0  0  0
    4.4959   -9.0736   24.3327 C   0  0  0  0  0  0  0  0  0  0  0  0
    3.2921   -8.5651   23.9618 F   0  0  0  0  0  0  0  0  0  0  0  0
    5.4483   -8.2704   23.8102 F   0  0  0  0  0  0  0  0  0  0  0  0
    4.5901   -8.9859   25.6734 F   0  0  0  0  0  0  0  0  0  0  0  0
    3.1614  -14.6137   26.5446 C   0  0  0  0  0  0  0  0  0  0  0  0
    4.5382  -15.5862   26.7735 Cl  0  0  0  0  0  0  0  0  0  0  0  0
  1  2  1  0
  2  3  2  0
  3  4  1  0
  4  5  1  0
  4  6  1  0
  6  7  1  0
  7  8  2  0
  7  9  1  0
 10  9  1  1
 10 11  1  0
 11 12  1  0
 11 13  1  0
 10 14  1  0
 14 15  1  0
 14 16  1  0
 14 17  1  0
  6 18  2  0
 18 19  1  0
 18  2  1  0
M  END
>  <inchikey>  (1199) 
ZDANMYUTBKCTJB-UHFFFAOYSA-N

>  <tags>  (1199) 
fragmenstein_placed,CpKRS_FrAncestor_bulkdock_iter2

>  <ref_pdb>  (1199) 
x0502c

>  <energy_score>  (1199) 
-10.240068

>  <distance_score>  (1199) 
0.755799

>  <HIPPO Pose ID>  (1199) 
58694

>  <ref_mols>  (1199) 
x0504b

>  <smiles>  (1199) 
Cc1nn(C)c(C(=O)NC(C(C)C)C(F)(F)F)c1Cl

>  <HIPPO Compound ID>  (1199) 
37726

>  <alias>  (1199) 
ZDANMYUTBKCTJB-UHFFFAOYSA-N-P49

>  <subsites>  (1199) 


>  <placement_batch>  (1199) 
CpKRS_FrAncestor_bulkdock_iter2

>  <name>  (1199) 
ZDANMYUTBKCTJB-UHFFFAOYSA-N-P49

$$$$
OBBCQQACYNQOQE-UHFFFAOYSA-N-P49
     RDKit          3D

 16 16  0  0  0  0  0  0  0  0999 V2000
    1.7694  -15.4953   28.8948 C   0  0  0  0  0  0  0  0  0  0  0  0
    1.9465  -14.7288   27.6413 C   0  0  0  0  0  0  0  0  0  0  0  0
    1.0145  -13.8440   27.2514 N   0  0  0  0  0  0  0  0  0  0  0  0
    1.5231  -13.3414   26.1003 N   0  0  0  0  0  0  0  0  0  0  0  0
    0.7587  -12.3574   25.3664 C   0  0  0  0  0  0  0  0  0  0  0  0
    2.7291  -13.8849   25.7394 C   0  0  0  0  0  0  0  0  0  0  0  0
    3.4604  -13.6113   24.5262 C   0  0  0  0  0  0  0  0  0  0  0  0
    3.5783  -14.4405   23.7205 O   0  0  0  0  0  0  0  0  0  0  0  0
    3.9068  -12.1429   24.5151 N   0  0  0  0  0  0  0  0  0  0  0  0
    4.5144  -11.3509   23.4631 C   0  0  1  0  0  0  0  0  0  0  0  0
    3.4409  -11.0400   22.4368 C   0  0  0  0  0  0  0  0  0  0  0  0
    5.1872  -10.0819   24.0100 C   0  0  1  0  0  0  0  0  0  0  0  0
    5.6125   -9.0704   22.9584 C   0  0  0  0  0  0  0  0  0  0  0  0
    4.3194   -9.4522   24.8573 F   0  0  0  0  0  0  0  0  0  0  0  0
    3.0174  -14.8057   26.7203 C   0  0  0  0  0  0  0  0  0  0  0  0
    4.3723  -15.8192   26.8256 Cl  0  0  0  0  0  0  0  0  0  0  0  0
  1  2  1  0
  2  3  2  0
  3  4  1  0
  4  5  1  0
  4  6  1  0
  6  7  1  0
  7  8  2  0
  7  9  1  0
  9 10  1  0
 10 11  1  6
 10 12  1  0
 12 13  1  6
 12 14  1  0
  6 15  2  0
 15 16  1  0
 15  2  1  0
M  END
>  <inchikey>  (1200) 
OBBCQQACYNQOQE-UHFFFAOYSA-N

>  <tags>  (1200) 
fragmenstein_placed,CpKRS_FrAncestor_bulkdock_iter2

>  <ref_pdb>  (1200) 
x0502c

>  <energy_score>  (1200) 
-13.150274

>  <distance_score>  (1200) 
0.760066

>  <HIPPO Pose ID>  (1200) 
58697

>  <ref_mols>  (1200) 
x0504b

>  <smiles>  (1200) 
Cc1nn(C)c(C(=O)NC(C)C(C)F)c1Cl

>  <HIPPO Compound ID>  (1200) 
37727

>  <alias>  (1200) 
OBBCQQACYNQOQE-UHFFFAOYSA-N-P49

>  <subsites>  (1200) 


>  <placement_batch>  (1200) 
CpKRS_FrAncestor_bulkdock_iter2

>  <name>  (1200) 
OBBCQQACYNQOQE-UHFFFAOYSA-N-P49

$$$$
CQOIOWSPBFDHPT-UHFFFAOYSA-N-P48
     RDKit          3D

 17 17  0  0  0  0  0  0  0  0999 V2000
    2.6149  -16.2622   28.4671 C   0  0  0  0  0  0  0  0  0  0  0  0
    2.6333  -15.2534   27.3857 C   0  0  0  0  0  0  0  0  0  0  0  0
    1.5484  -14.5289   27.1024 N   0  0  0  0  0  0  0  0  0  0  0  0
    1.9811  -13.6473   26.1749 N   0  0  0  0  0  0  0  0  0  0  0  0
    1.0419  -12.6348   25.7599 C   0  0  0  0  0  0  0  0  0  0  0  0
    3.2909  -13.8294   25.7856 C   0  0  0  0  0  0  0  0  0  0  0  0
    4.1357  -13.0185   24.9077 C   0  0  0  0  0  0  0  0  0  0  0  0
    5.2318  -12.8161   25.2312 O   0  0  0  0  0  0  0  0  0  0  0  0
    3.3479  -12.5059   23.7012 N   0  0  0  0  0  0  0  0  0  0  0  0
    3.7718  -11.7020   22.5720 C   0  0  2  0  0  0  0  0  0  0  0  0
    5.0585  -12.2528   21.9874 C   0  0  0  0  0  0  0  0  0  0  0  0
    3.9336  -10.1882   22.8531 C   0  0  0  0  0  0  0  0  0  0  0  0
    4.7312   -9.7852   24.0739 C   0  0  0  0  0  0  0  0  0  0  0  0
    2.6910   -9.6180   22.9690 F   0  0  0  0  0  0  0  0  0  0  0  0
    4.4967   -9.5820   21.7686 F   0  0  0  0  0  0  0  0  0  0  0  0
    3.7105  -14.9052   26.5496 C   0  0  0  0  0  0  0  0  0  0  0  0
    5.2211  -15.6693   26.5515 Cl  0  0  0  0  0  0  0  0  0  0  0  0
  1  2  1  0
  2  3  2  0
  3  4  1  0
  4  5  1  0
  4  6  1  0
  6  7  1  0
  7  8  2  0
  7  9  1  0
  9 10  1  0
 10 11  1  1
 10 12  1  0
 12 13  1  0
 12 14  1  0
 12 15  1  0
  6 16  2  0
 16 17  1  0
 16  2  1  0
M  END
>  <inchikey>  (1201) 
CQOIOWSPBFDHPT-UHFFFAOYSA-N

>  <tags>  (1201) 
fragmenstein_placed,CpKRS_FrAncestor_bulkdock_iter2

>  <ref_pdb>  (1201) 
x0502c

>  <energy_score>  (1201) 
-2.369913

>  <distance_score>  (1201) 
0.774364

>  <HIPPO Pose ID>  (1201) 
58699

>  <ref_mols>  (1201) 
x0504a

>  <smiles>  (1201) 
Cc1nn(C)c(C(=O)NC(C)C(C)(F)F)c1Cl

>  <HIPPO Compound ID>  (1201) 
37728

>  <alias>  (1201) 
CQOIOWSPBFDHPT-UHFFFAOYSA-N-P48

>  <subsites>  (1201) 


>  <placement_batch>  (1201) 
CpKRS_FrAncestor_bulkdock_iter2

>  <name>  (1201) 
CQOIOWSPBFDHPT-UHFFFAOYSA-N-P48

$$$$
DCVQJIHMULLBOZ-UHFFFAOYSA-N-P49
     RDKit          3D

 17 17  0  0  0  0  0  0  0  0999 V2000
    1.8575  -15.6871   28.8751 C   0  0  0  0  0  0  0  0  0  0  0  0
    1.9114  -14.8505   27.6546 C   0  0  0  0  0  0  0  0  0  0  0  0
    0.8699  -14.0731   27.3172 N   0  0  0  0  0  0  0  0  0  0  0  0
    1.2846  -13.4732   26.1760 N   0  0  0  0  0  0  0  0  0  0  0  0
    0.3311  -12.6758   25.4350 C   0  0  0  0  0  0  0  0  0  0  0  0
    2.5752  -13.7789   25.8170 C   0  0  0  0  0  0  0  0  0  0  0  0
    3.2966  -13.2937   24.6575 C   0  0  0  0  0  0  0  0  0  0  0  0
    3.8094  -14.0512   23.9389 O   0  0  0  0  0  0  0  0  0  0  0  0
    3.1477  -11.7657   24.5545 N   0  0  0  0  0  0  0  0  0  0  0  0
    3.6916  -10.8183   23.5734 C   0  0  0  0  0  0  0  0  0  0  0  0
    4.0263  -11.5298   22.2581 C   0  0  0  0  0  0  0  0  0  0  0  0
    2.6083   -9.7602   23.3193 C   0  0  0  0  0  0  0  0  0  0  0  0
    4.9704  -10.1180   24.0682 C   0  0  0  0  0  0  0  0  0  0  0  0
    5.3753   -9.1846   23.1651 F   0  0  0  0  0  0  0  0  0  0  0  0
    4.7066   -9.4352   25.2144 F   0  0  0  0  0  0  0  0  0  0  0  0
    2.9764  -14.7328   26.7302 C   0  0  0  0  0  0  0  0  0  0  0  0
    4.4453  -15.5849   26.7842 Cl  0  0  0  0  0  0  0  0  0  0  0  0
  1  2  1  0
  2  3  2  0
  3  4  1  0
  4  5  1  0
  4  6  1  0
  6  7  1  0
  7  8  2  0
  7  9  1  0
  9 10  1  0
 10 11  1  0
 10 12  1  0
 10 13  1  0
 13 14  1  0
 13 15  1  0
  6 16  2  0
 16 17  1  0
 16  2  1  0
M  END
>  <inchikey>  (1202) 
DCVQJIHMULLBOZ-UHFFFAOYSA-N

>  <tags>  (1202) 
fragmenstein_placed,CpKRS_FrAncestor_bulkdock_iter2

>  <ref_pdb>  (1202) 
x0502c

>  <energy_score>  (1202) 
-5.161457

>  <distance_score>  (1202) 
0.641519

>  <HIPPO Pose ID>  (1202) 
58703

>  <ref_mols>  (1202) 
x0504b

>  <smiles>  (1202) 
Cc1nn(C)c(C(=O)NC(C)(C)C(F)F)c1Cl

>  <HIPPO Compound ID>  (1202) 
37729

>  <alias>  (1202) 
DCVQJIHMULLBOZ-UHFFFAOYSA-N-P49

>  <subsites>  (1202) 


>  <placement_batch>  (1202) 
CpKRS_FrAncestor_bulkdock_iter2

>  <name>  (1202) 
DCVQJIHMULLBOZ-UHFFFAOYSA-N-P49

$$$$
OVFZAEACWZGJPX-UHFFFAOYSA-N-P55
     RDKit          3D

 18 19  0  0  0  0  0  0  0  0999 V2000
    2.7787  -17.0995   27.5586 C   0  0  0  0  0  0  0  0  0  0  0  0
    2.7209  -15.7897   28.3262 C   0  0  0  0  0  0  0  0  0  0  0  0
    1.3692  -15.4482   28.9654 C   0  0  0  0  0  0  0  0  0  0  0  0
    3.7556  -15.9446   29.4338 C   0  0  0  0  0  0  0  0  0  0  0  0
    3.0899  -14.7839   27.3096 C   0  0  0  0  0  0  0  0  0  0  0  0
    4.2246  -14.6481   26.5627 C   0  0  0  0  0  0  0  0  0  0  0  0
    3.8480  -13.7706   25.5386 C   0  0  0  0  0  0  0  0  0  0  0  0
    4.7028  -13.4071   24.4273 C   0  0  0  0  0  0  0  0  0  0  0  0
    5.7889  -13.8125   24.3784 O   0  0  0  0  0  0  0  0  0  0  0  0
    3.9500  -12.4891   23.4800 N   0  0  0  0  0  0  0  0  0  0  0  0
    4.3905  -11.7953   22.3213 C   0  0  0  0  0  0  0  0  0  0  0  0
    4.7365  -10.3962   22.7214 C   0  0  0  0  0  0  0  0  0  0  0  0
    4.6572   -9.8963   23.9426 N   0  0  0  0  0  0  0  0  0  0  0  0
    5.0725   -8.5845   23.9413 C   0  0  0  0  0  0  0  0  0  0  0  0
    5.4030   -8.0785   22.7066 C   0  0  0  0  0  0  0  0  0  0  0  0
    5.2634   -9.2952   21.5186 S   0  0  0  0  0  0  0  0  0  0  0  0
    2.5933  -13.3162   25.7008 N   0  0  0  0  0  0  0  0  0  0  0  0
    2.1170  -13.9730   26.8196 O   0  0  0  0  0  0  0  0  0  0  0  0
  1  2  1  0
  2  3  1  0
  2  4  1  0
  2  5  1  0
  5  6  2  0
  6  7  1  0
  7  8  1  0
  8  9  2  0
  8 10  1  0
 10 11  1  0
 11 12  1  0
 12 13  2  0
 13 14  1  0
 14 15  2  0
 15 16  1  0
  7 17  2  0
 17 18  1  0
 18  5  1  0
 16 12  1  0
M  END
>  <inchikey>  (1203) 
OVFZAEACWZGJPX-UHFFFAOYSA-N

>  <tags>  (1203) 
fragmenstein_placed,CpKRS_FrAncestor_bulkdock_iter2

>  <ref_pdb>  (1203) 
x0646a

>  <energy_score>  (1203) 
-62.903812

>  <distance_score>  (1203) 
0.725394

>  <HIPPO Pose ID>  (1203) 
58714

>  <ref_mols>  (1203) 
x0646a

>  <smiles>  (1203) 
CC(C)(C)c1cc(C(=O)NCc2nccs2)no1

>  <HIPPO Compound ID>  (1203) 
219708

>  <alias>  (1203) 
OVFZAEACWZGJPX-UHFFFAOYSA-N-P55

>  <subsites>  (1203) 


>  <placement_batch>  (1203) 
CpKRS_FrAncestor_bulkdock_iter2

>  <name>  (1203) 
OVFZAEACWZGJPX-UHFFFAOYSA-N-P55

$$$$
RSJZZCKAEUBQGV-UHFFFAOYSA-N-P4
     RDKit          3D

 17 18  0  0  0  0  0  0  0  0999 V2000
    2.6632  -15.8847   28.9283 C   0  0  0  0  0  0  0  0  0  0  0  0
    2.2201  -16.0144   27.4654 C   0  0  0  0  0  0  0  0  0  0  0  0
    0.7734  -16.5169   27.3522 C   0  0  0  0  0  0  0  0  0  0  0  0
    3.1682  -17.0171   26.8026 C   0  0  0  0  0  0  0  0  0  0  0  0
    2.2728  -14.6803   26.7906 C   0  0  0  0  0  0  0  0  0  0  0  0
    3.1045  -14.1725   25.8248 C   0  0  0  0  0  0  0  0  0  0  0  0
    2.6275  -12.8757   25.5771 C   0  0  0  0  0  0  0  0  0  0  0  0
    3.2573  -11.9762   24.7950 N   0  0  0  0  0  0  0  0  0  0  0  0
    4.5292  -12.1123   23.9394 C   0  0  0  0  0  0  0  0  0  0  0  0
    5.1922  -13.0450   23.7130 O   0  0  0  0  0  0  0  0  0  0  0  0
    4.9540  -10.7510   23.4251 C   0  0  1  0  0  0  0  0  0  0  0  0
    5.0529  -10.8089   21.9149 C   0  0  0  0  0  0  0  0  0  0  0  0
    5.3398   -9.3961   21.4640 C   0  0  0  0  0  0  0  0  0  0  0  0
    4.4058   -8.4653   22.2039 C   0  0  0  0  0  0  0  0  0  0  0  0
    3.8744   -9.3282   23.7015 S   0  0  0  0  0  0  0  0  0  0  0  0
    1.5283  -12.5918   26.2764 N   0  0  0  0  0  0  0  0  0  0  0  0
    1.3835  -13.6761   27.0496 N   0  0  0  0  0  0  0  0  0  0  0  0
  1  2  1  0
  2  3  1  0
  2  4  1  0
  2  5  1  0
  5  6  2  0
  6  7  1  0
  7  8  1  0
  8  9  1  0
  9 10  2  0
 11  9  1  6
 11 12  1  0
 12 13  1  0
 13 14  1  0
 14 15  1  0
  7 16  2  0
 16 17  1  0
 17  5  1  0
 15 11  1  0
M  END
>  <inchikey>  (1204) 
RSJZZCKAEUBQGV-UHFFFAOYSA-N

>  <tags>  (1204) 
fragmenstein_placed,CpKRS_FrAncestor_bulkdock_iter2

>  <ref_pdb>  (1204) 
x0646a

>  <energy_score>  (1204) 
-35.85289

>  <distance_score>  (1204) 
0.6055

>  <HIPPO Pose ID>  (1204) 
58715

>  <ref_mols>  (1204) 
x0407a

>  <smiles>  (1204) 
CC(C)(C)c1cc(NC(=O)C2CCCS2)n[nH]1

>  <HIPPO Compound ID>  (1204) 
251276

>  <alias>  (1204) 
RSJZZCKAEUBQGV-UHFFFAOYSA-N-P4

>  <subsites>  (1204) 


>  <placement_batch>  (1204) 
CpKRS_FrAncestor_bulkdock_iter2

>  <name>  (1204) 
RSJZZCKAEUBQGV-UHFFFAOYSA-N-P4

$$$$
MAIIMFZVMBQBTL-UHFFFAOYSA-N-P64
     RDKit          3D

 18 19  0  0  0  0  0  0  0  0999 V2000
    0.0687  -13.6612   26.4706 C   0  0  0  0  0  0  0  0  0  0  0  0
    1.0255  -14.7012   27.0898 C   0  0  0  0  0  0  0  0  0  0  0  0
    0.3685  -16.0874   26.9708 C   0  0  0  0  0  0  0  0  0  0  0  0
    1.2671  -14.3662   28.5715 C   0  0  0  0  0  0  0  0  0  0  0  0
    2.3625  -14.6947   26.3908 C   0  0  0  0  0  0  0  0  0  0  0  0
    3.4378  -15.5065   26.6953 C   0  0  0  0  0  0  0  0  0  0  0  0
    4.4608  -15.1976   25.8503 N   0  0  0  0  0  0  0  0  0  0  0  0
    4.0766  -14.2083   24.9710 C   0  0  0  0  0  0  0  0  0  0  0  0
    4.9871  -13.7665   23.9301 C   0  0  0  0  0  0  0  0  0  0  0  0
    5.9324  -14.4075   23.7188 O   0  0  0  0  0  0  0  0  0  0  0  0
    4.5040  -12.4676   23.2813 N   0  0  0  0  0  0  0  0  0  0  0  0
    5.0288  -11.7310   22.1725 C   0  0  0  0  0  0  0  0  0  0  0  0
    5.1817  -10.2933   22.5279 C   0  0  0  0  0  0  0  0  0  0  0  0
    5.0098   -9.1999   21.6221 C   0  0  0  0  0  0  0  0  0  0  0  0
    5.1540   -7.9656   22.0980 N   0  0  0  0  0  0  0  0  0  0  0  0
    5.6394   -8.0815   23.6821 S   0  0  0  0  0  0  0  0  0  0  0  0
    5.5709   -9.7827   23.7519 C   0  0  0  0  0  0  0  0  0  0  0  0
    2.7838  -13.8616   25.3135 C   0  0  0  0  0  0  0  0  0  0  0  0
  1  2  1  0
  2  3  1  0
  2  4  1  0
  2  5  1  0
  5  6  2  0
  6  7  1  0
  7  8  1  0
  8  9  1  0
  9 10  2  0
  9 11  1  0
 11 12  1  0
 12 13  1  0
 13 14  1  0
 14 15  2  0
 15 16  1  0
 16 17  1  0
  8 18  2  0
 18  5  1  0
 17 13  2  0
M  END
>  <inchikey>  (1205) 
MAIIMFZVMBQBTL-UHFFFAOYSA-N

>  <tags>  (1205) 
fragmenstein_placed,CpKRS_FrAncestor_bulkdock_iter2

>  <ref_pdb>  (1205) 
x0646a

>  <energy_score>  (1205) 
-13.298901

>  <distance_score>  (1205) 
0.756632

>  <HIPPO Pose ID>  (1205) 
58719

>  <ref_mols>  (1205) 
x0787b

>  <smiles>  (1205) 
CC(C)(C)c1c[nH]c(C(=O)NCc2cnsc2)c1

>  <HIPPO Compound ID>  (1205) 
338361

>  <alias>  (1205) 
MAIIMFZVMBQBTL-UHFFFAOYSA-N-P64

>  <subsites>  (1205) 


>  <placement_batch>  (1205) 
CpKRS_FrAncestor_bulkdock_iter2

>  <name>  (1205) 
MAIIMFZVMBQBTL-UHFFFAOYSA-N-P64

$$$$
KCCONEQPQJRRSV-UHFFFAOYSA-N-P13
     RDKit          3D

 17 18  0  0  0  0  0  0  0  0999 V2000
    3.6429  -17.0220   25.7120 C   0  0  0  0  0  0  0  0  0  0  0  0
    3.8622  -15.7454   26.5497 C   0  0  0  0  0  0  0  0  0  0  0  0
    5.3443  -15.3593   26.4465 C   0  0  0  0  0  0  0  0  0  0  0  0
    3.5315  -16.0419   28.0379 C   0  0  0  0  0  0  0  0  0  0  0  0
    2.9060  -14.6638   26.0677 C   0  0  0  0  0  0  0  0  0  0  0  0
    1.5813  -14.5636   26.4486 C   0  0  0  0  0  0  0  0  0  0  0  0
    1.0147  -13.4624   25.9264 O   0  0  0  0  0  0  0  0  0  0  0  0
    1.9388  -12.7937   25.1659 N   0  0  0  0  0  0  0  0  0  0  0  0
    3.0744  -13.5215   25.2126 C   0  0  0  0  0  0  0  0  0  0  0  0
    4.2571  -13.0408   24.4630 C   0  0  0  0  0  0  0  0  0  0  0  0
    5.1020  -13.7702   24.1337 O   0  0  0  0  0  0  0  0  0  0  0  0
    4.1208  -11.5228   24.2695 N   0  0  0  0  0  0  0  0  0  0  0  0
    5.0318  -10.5730   23.7176 C   0  0  0  0  0  0  0  0  0  0  0  0
    5.0681  -10.6209   22.1966 C   0  0  0  0  0  0  0  0  0  0  0  0
    5.5405   -9.2338   21.7724 C   0  0  0  0  0  0  0  0  0  0  0  0
    5.5523   -8.3734   23.0332 C   0  0  0  0  0  0  0  0  0  0  0  0
    4.6849   -9.1271   24.0267 C   0  0  0  0  0  0  0  0  0  0  0  0
  1  2  1  0
  2  3  1  0
  2  4  1  0
  2  5  1  0
  5  6  2  0
  6  7  1  0
  7  8  1  0
  8  9  2  0
  9 10  1  0
 10 11  2  0
 10 12  1  0
 12 13  1  0
 13 14  1  0
 14 15  1  0
 15 16  1  0
 16 17  1  0
  9  5  1  0
 17 13  1  0
M  END
>  <inchikey>  (1206) 
KCCONEQPQJRRSV-UHFFFAOYSA-N

>  <tags>  (1206) 
fragmenstein_placed,CpKRS_FrAncestor_bulkdock_iter2

>  <ref_pdb>  (1206) 
x0646a

>  <energy_score>  (1206) 
-41.491413

>  <distance_score>  (1206) 
0.576512

>  <HIPPO Pose ID>  (1206) 
58722

>  <ref_mols>  (1206) 
x0421c

>  <smiles>  (1206) 
CC(C)(C)c1conc1C(=O)NC1CCCC1

>  <HIPPO Compound ID>  (1206) 
446365

>  <alias>  (1206) 
KCCONEQPQJRRSV-UHFFFAOYSA-N-P13

>  <subsites>  (1206) 


>  <placement_batch>  (1206) 
CpKRS_FrAncestor_bulkdock_iter2

>  <name>  (1206) 
KCCONEQPQJRRSV-UHFFFAOYSA-N-P13

$$$$
ZTJQAYDZLDHGMQ-UHFFFAOYSA-N-P46
     RDKit          3D

 18 19  0  0  0  0  0  0  0  0999 V2000
    5.3459  -15.2714   26.9169 C   0  0  0  0  0  0  0  0  0  0  0  0
    3.9282  -15.6034   27.3895 C   0  0  0  0  0  0  0  0  0  0  0  0
    3.4636  -16.8164   26.6001 C   0  0  0  0  0  0  0  0  0  0  0  0
    3.9445  -16.0348   28.8691 C   0  0  0  0  0  0  0  0  0  0  0  0
    2.8916  -14.5247   27.1339 C   0  0  0  0  0  0  0  0  0  0  0  0
    1.7414  -14.3766   27.8823 C   0  0  0  0  0  0  0  0  0  0  0  0
    0.9376  -13.4435   27.3525 O   0  0  0  0  0  0  0  0  0  0  0  0
    1.5261  -12.9243   26.2345 N   0  0  0  0  0  0  0  0  0  0  0  0
    2.7298  -13.5289   26.1037 C   0  0  0  0  0  0  0  0  0  0  0  0
    3.6034  -13.0809   24.9813 C   0  0  0  0  0  0  0  0  0  0  0  0
    4.6744  -13.5094   24.8144 O   0  0  0  0  0  0  0  0  0  0  0  0
    2.8308  -11.9920   24.2078 N   0  0  0  0  0  0  0  0  0  0  0  0
    3.1756  -11.2750   23.0179 C   0  0  0  0  0  0  0  0  0  0  0  0
    4.4685  -10.4881   23.1408 C   0  0  0  0  0  0  0  0  0  0  0  0
    4.8051   -9.7217   21.8656 C   0  0  0  0  0  0  0  0  0  0  0  0
    5.7346   -8.6028   22.3119 C   0  0  0  0  0  0  0  0  0  0  0  0
    5.6435   -8.5456   23.8329 C   0  0  0  0  0  0  0  0  0  0  0  0
    4.4160   -9.3701   24.1749 C   0  0  0  0  0  0  0  0  0  0  0  0
  1  2  1  0
  2  3  1  0
  2  4  1  0
  2  5  1  0
  5  6  2  0
  6  7  1  0
  7  8  1  0
  8  9  2  0
  9 10  1  0
 10 11  2  0
 10 12  1  0
 12 13  1  0
 13 14  1  0
 14 15  1  0
 15 16  1  0
 16 17  1  0
 17 18  1  0
  9  5  1  0
 18 14  1  0
M  END
>  <inchikey>  (1207) 
ZTJQAYDZLDHGMQ-UHFFFAOYSA-N

>  <tags>  (1207) 
fragmenstein_placed,CpKRS_FrAncestor_bulkdock_iter2

>  <ref_pdb>  (1207) 
x0646a

>  <energy_score>  (1207) 
-11.472032

>  <distance_score>  (1207) 
0.659003

>  <HIPPO Pose ID>  (1207) 
58730

>  <ref_mols>  (1207) 
x0502c

>  <smiles>  (1207) 
CC(C)(C)c1conc1C(=O)NCC1CCCC1

>  <HIPPO Compound ID>  (1207) 
333260

>  <alias>  (1207) 
ZTJQAYDZLDHGMQ-UHFFFAOYSA-N-P46

>  <subsites>  (1207) 


>  <placement_batch>  (1207) 
CpKRS_FrAncestor_bulkdock_iter2

>  <name>  (1207) 
ZTJQAYDZLDHGMQ-UHFFFAOYSA-N-P46

$$$$
LWAANOODPMMBCJ-UHFFFAOYSA-N-P48
     RDKit          3D

 16 16  0  0  0  0  0  0  0  0999 V2000
   -0.7197  -14.8543   24.3339 C   0  0  0  0  0  0  0  0  0  0  0  0
   -0.4133  -13.8127   25.4242 C   0  0  0  0  0  0  0  0  0  0  0  0
   -0.7505  -12.4204   24.8660 C   0  0  0  0  0  0  0  0  0  0  0  0
   -1.2961  -14.0637   26.6473 C   0  0  0  0  0  0  0  0  0  0  0  0
    1.0410  -13.9396   25.8028 C   0  0  0  0  0  0  0  0  0  0  0  0
    1.6189  -14.7805   26.6385 N   0  0  0  0  0  0  0  0  0  0  0  0
    2.9637  -14.6206   26.3856 C   0  0  0  0  0  0  0  0  0  0  0  0
    4.2673  -15.7031   27.1898 Br  0  0  0  0  0  0  0  0  0  0  0  0
    3.1611  -13.6751   25.4067 C   0  0  0  0  0  0  0  0  0  0  0  0
    4.3234  -13.1487   24.7159 C   0  0  0  0  0  0  0  0  0  0  0  0
    5.4060  -13.3293   25.1024 O   0  0  0  0  0  0  0  0  0  0  0  0
    3.8202  -12.3716   23.4864 N   0  0  0  0  0  0  0  0  0  0  0  0
    4.5474  -11.7341   22.4230 C   0  0  0  0  0  0  0  0  0  0  0  0
    4.8891  -10.2966   22.7684 C   0  0  0  0  0  0  0  0  0  0  0  0
    5.2476   -9.6327   21.6379 F   0  0  0  0  0  0  0  0  0  0  0  0
    1.9159  -13.2207   25.0403 O   0  0  0  0  0  0  0  0  0  0  0  0
  1  2  1  0
  2  3  1  0
  2  4  1  0
  2  5  1  0
  5  6  2  0
  6  7  1  0
  7  8  1  0
  7  9  2  0
  9 10  1  0
 10 11  2  0
 10 12  1  0
 12 13  1  0
 13 14  1  0
 14 15  1  0
  9 16  1  0
 16  5  1  0
M  END
>  <inchikey>  (1208) 
LWAANOODPMMBCJ-UHFFFAOYSA-N

>  <tags>  (1208) 
fragmenstein_placed,CpKRS_FrAncestor_bulkdock_iter2

>  <ref_pdb>  (1208) 
x0646a

>  <energy_score>  (1208) 
-10.205993

>  <distance_score>  (1208) 
0.962697

>  <HIPPO Pose ID>  (1208) 
58731

>  <ref_mols>  (1208) 
x0504a

>  <smiles>  (1208) 
CC(C)(C)c1nc(Br)c(C(=O)NCCF)o1

>  <HIPPO Compound ID>  (1208) 
446366

>  <alias>  (1208) 
LWAANOODPMMBCJ-UHFFFAOYSA-N-P48

>  <subsites>  (1208) 


>  <placement_batch>  (1208) 
CpKRS_FrAncestor_bulkdock_iter2

>  <name>  (1208) 
LWAANOODPMMBCJ-UHFFFAOYSA-N-P48

$$$$
YSTWTNUJEFNOJF-UHFFFAOYSA-N-P55
     RDKit          3D

 18 19  0  0  0  0  0  0  0  0999 V2000
    7.1716   -8.3189   24.7862 C   0  0  0  0  0  0  0  0  0  0  0  0
    5.7216   -7.8768   24.6562 C   0  0  0  0  0  0  0  0  0  0  0  0
    5.0130   -7.8463   26.0055 C   0  0  0  0  0  0  0  0  0  0  0  0
    5.7975   -6.4339   24.1804 C   0  0  0  0  0  0  0  0  0  0  0  0
    5.1166   -8.8359   23.6353 C   0  0  0  0  0  0  0  0  0  0  0  0
    5.2828   -8.7218   22.2645 C   0  0  0  0  0  0  0  0  0  0  0  0
    4.9358  -10.1878   21.4956 S   0  0  0  0  0  0  0  0  0  0  0  0
    4.4601  -10.8720   23.0033 C   0  0  0  0  0  0  0  0  0  0  0  0
    4.0128  -12.3021   22.9525 C   0  0  0  0  0  0  0  0  0  0  0  0
    3.6564  -12.8722   24.2104 N   0  0  0  0  0  0  0  0  0  0  0  0
    4.4211  -13.8441   25.1159 C   0  0  0  0  0  0  0  0  0  0  0  0
    5.4972  -14.2766   25.0197 O   0  0  0  0  0  0  0  0  0  0  0  0
    3.5534  -14.3361   26.2104 C   0  0  0  0  0  0  0  0  0  0  0  0
    3.9251  -15.3590   27.1402 C   0  0  0  0  0  0  0  0  0  0  0  0
    2.8644  -15.5913   27.9830 C   0  0  0  0  0  0  0  0  0  0  0  0
    1.8499  -14.7529   27.6148 N   0  0  0  0  0  0  0  0  0  0  0  0
    2.2481  -13.9948   26.5396 C   0  0  0  0  0  0  0  0  0  0  0  0
    4.5623  -10.0543   24.0385 N   0  0  0  0  0  0  0  0  0  0  0  0
  1  2  1  0
  2  3  1  0
  2  4  1  0
  2  5  1  0
  5  6  2  0
  6  7  1  0
  7  8  1  0
  8  9  1  0
  9 10  1  0
 10 11  1  0
 11 12  2  0
 11 13  1  0
 13 14  1  0
 14 15  2  0
 15 16  1  0
 16 17  1  0
  8 18  2  0
 18  5  1  0
 17 13  2  0
M  END
>  <inchikey>  (1209) 
YSTWTNUJEFNOJF-UHFFFAOYSA-N

>  <tags>  (1209) 
fragmenstein_placed,CpKRS_FrAncestor_bulkdock_iter2

>  <ref_pdb>  (1209) 
x0646a

>  <energy_score>  (1209) 
-12.896125

>  <distance_score>  (1209) 
0.364665

>  <HIPPO Pose ID>  (1209) 
58734

>  <ref_mols>  (1209) 
x0646a

>  <smiles>  (1209) 
CC(C)(C)c1csc(CNC(=O)c2cc[nH]c2)n1

>  <HIPPO Compound ID>  (1209) 
365182

>  <alias>  (1209) 
YSTWTNUJEFNOJF-UHFFFAOYSA-N-P55

>  <subsites>  (1209) 


>  <placement_batch>  (1209) 
CpKRS_FrAncestor_bulkdock_iter2

>  <name>  (1209) 
YSTWTNUJEFNOJF-UHFFFAOYSA-N-P55

$$$$
UOMRFLCBVUTCNO-UHFFFAOYSA-N-P11
     RDKit          3D

 17 18  0  0  0  0  0  0  0  0999 V2000
    0.0160  -13.3659   27.6120 C   0  0  0  0  0  0  0  0  0  0  0  0
    0.1577  -13.7359   26.1426 C   0  0  0  0  0  0  0  0  0  0  0  0
   -0.6397  -14.9926   25.8015 C   0  0  0  0  0  0  0  0  0  0  0  0
   -0.3690  -12.5693   25.2845 C   0  0  0  0  0  0  0  0  0  0  0  0
    1.6148  -13.9411   25.9035 C   0  0  0  0  0  0  0  0  0  0  0  0
    2.4165  -13.1584   25.2226 N   0  0  0  0  0  0  0  0  0  0  0  0
    3.6699  -13.6941   25.4695 C   0  0  0  0  0  0  0  0  0  0  0  0
    4.8743  -13.0742   24.9449 C   0  0  0  0  0  0  0  0  0  0  0  0
    5.9401  -13.5156   25.1024 O   0  0  0  0  0  0  0  0  0  0  0  0
    4.4280  -11.7580   24.2892 N   0  0  0  0  0  0  0  0  0  0  0  0
    5.1830  -10.7602   23.6110 C   0  0  0  0  0  0  0  0  0  0  0  0
    4.6246   -9.3563   23.7859 C   0  0  0  0  0  0  0  0  0  0  0  0
    5.3216   -8.5874   22.6766 C   0  0  0  0  0  0  0  0  0  0  0  0
    5.4721   -9.5838   21.5310 C   0  0  0  0  0  0  0  0  0  0  0  0
    5.1532  -10.9596   22.1041 C   0  0  0  0  0  0  0  0  0  0  0  0
    3.5572  -14.7757   26.3069 C   0  0  0  0  0  0  0  0  0  0  0  0
    2.2383  -14.9343   26.6118 O   0  0  0  0  0  0  0  0  0  0  0  0
  1  2  1  0
  2  3  1  0
  2  4  1  0
  2  5  1  0
  5  6  2  0
  6  7  1  0
  7  8  1  0
  8  9  2  0
  8 10  1  0
 10 11  1  0
 11 12  1  0
 12 13  1  0
 13 14  1  0
 14 15  1  0
  7 16  2  0
 16 17  1  0
 17  5  1  0
 15 11  1  0
M  END
>  <inchikey>  (1210) 
UOMRFLCBVUTCNO-UHFFFAOYSA-N

>  <tags>  (1210) 
fragmenstein_placed,CpKRS_FrAncestor_bulkdock_iter2

>  <ref_pdb>  (1210) 
x0646a

>  <energy_score>  (1210) 
-4.556252

>  <distance_score>  (1210) 
0.702616

>  <HIPPO Pose ID>  (1210) 
58735

>  <ref_mols>  (1210) 
x0421a

>  <smiles>  (1210) 
CC(C)(C)c1nc(C(=O)NC2CCCC2)co1

>  <HIPPO Compound ID>  (1210) 
235109

>  <alias>  (1210) 
UOMRFLCBVUTCNO-UHFFFAOYSA-N-P11

>  <subsites>  (1210) 


>  <placement_batch>  (1210) 
CpKRS_FrAncestor_bulkdock_iter2

>  <name>  (1210) 
UOMRFLCBVUTCNO-UHFFFAOYSA-N-P11

$$$$
KVRLEEFPNPUGLV-UHFFFAOYSA-N-P44
     RDKit          3D

 18 19  0  0  0  0  0  0  0  0999 V2000
   -6.1581  -10.3829   48.8021 C   0  0  0  0  0  0  0  0  0  0  0  0
   -7.4922  -10.0482   48.1109 C   0  0  0  0  0  0  0  0  0  0  0  0
   -7.1956   -9.3368   46.7796 C   0  0  0  0  0  0  0  0  0  0  0  0
   -8.3008   -9.1054   49.0180 C   0  0  0  0  0  0  0  0  0  0  0  0
   -8.2851  -11.3082   47.8843 C   0  0  0  0  0  0  0  0  0  0  0  0
   -8.2119  -12.4557   48.5259 N   0  0  0  0  0  0  0  0  0  0  0  0
   -9.2061  -13.2153   47.9589 C   0  0  0  0  0  0  0  0  0  0  0  0
   -9.8810  -12.4964   46.9939 C   0  0  0  0  0  0  0  0  0  0  0  0
  -11.0418  -12.7332   46.1368 C   0  0  0  0  0  0  0  0  0  0  0  0
  -11.5062  -11.8359   45.5537 O   0  0  0  0  0  0  0  0  0  0  0  0
  -11.5113  -14.2005   46.2551 N   0  0  0  0  0  0  0  0  0  0  0  0
  -12.5970  -14.8919   45.6042 C   0  0  0  0  0  0  0  0  0  0  0  0
  -12.3085  -15.1949   44.1274 C   0  0  0  0  0  0  0  0  0  0  0  0
  -13.5814  -15.5694   43.3644 C   0  0  0  0  0  0  0  0  0  0  0  0
  -13.7737  -17.0449   43.6708 C   0  0  0  0  0  0  0  0  0  0  0  0
  -12.3625  -17.6118   43.6717 C   0  0  0  0  0  0  0  0  0  0  0  0
  -11.4261  -16.4364   43.9560 C   0  0  0  0  0  0  0  0  0  0  0  0
   -9.2754  -11.2594   46.9423 O   0  0  0  0  0  0  0  0  0  0  0  0
  1  2  1  0
  2  3  1  0
  2  4  1  0
  2  5  1  0
  5  6  2  0
  6  7  1  0
  7  8  2  0
  8  9  1  0
  9 10  2  0
  9 11  1  0
 11 12  1  0
 12 13  1  0
 13 14  1  0
 14 15  1  0
 15 16  1  0
 16 17  1  0
  8 18  1  0
 18  5  1  0
 17 13  1  0
M  END
>  <inchikey>  (1211) 
KVRLEEFPNPUGLV-UHFFFAOYSA-N

>  <tags>  (1211) 
fragmenstein_placed,CpKRS_FrAncestor_bulkdock_iter2

>  <ref_pdb>  (1211) 
x0646a

>  <energy_score>  (1211) 
-25.144736

>  <distance_score>  (1211) 
0.465436

>  <HIPPO Pose ID>  (1211) 
58740

>  <ref_mols>  (1211) 
x0502b

>  <smiles>  (1211) 
CC(C)(C)c1ncc(C(=O)NCC2CCCC2)o1

>  <HIPPO Compound ID>  (1211) 
364413

>  <alias>  (1211) 
KVRLEEFPNPUGLV-UHFFFAOYSA-N-P44

>  <subsites>  (1211) 


>  <placement_batch>  (1211) 
CpKRS_FrAncestor_bulkdock_iter2

>  <name>  (1211) 
KVRLEEFPNPUGLV-UHFFFAOYSA-N-P44

$$$$
BTBDDCQHSAYFML-UHFFFAOYSA-N-P48
     RDKit          3D

 17 17  0  0  0  0  0  0  0  0999 V2000
   -0.5755  -14.9754   24.4438 C   0  0  0  0  0  0  0  0  0  0  0  0
   -0.3324  -13.8869   25.5028 C   0  0  0  0  0  0  0  0  0  0  0  0
   -0.7177  -12.5262   24.8953 C   0  0  0  0  0  0  0  0  0  0  0  0
   -1.2215  -14.1290   26.7199 C   0  0  0  0  0  0  0  0  0  0  0  0
    1.1190  -13.9339   25.9025 C   0  0  0  0  0  0  0  0  0  0  0  0
    1.7276  -14.6299   26.8454 N   0  0  0  0  0  0  0  0  0  0  0  0
    3.0684  -14.4103   26.6025 C   0  0  0  0  0  0  0  0  0  0  0  0
    3.2237  -13.6010   25.5013 C   0  0  0  0  0  0  0  0  0  0  0  0
    4.3639  -13.0795   24.7745 C   0  0  0  0  0  0  0  0  0  0  0  0
    5.4578  -13.2382   25.1385 O   0  0  0  0  0  0  0  0  0  0  0  0
    3.8215  -12.3364   23.5414 N   0  0  0  0  0  0  0  0  0  0  0  0
    4.5071  -11.5487   22.5443 C   0  0  0  0  0  0  0  0  0  0  0  0
    4.5950  -10.0498   22.8484 C   0  0  0  0  0  0  0  0  0  0  0  0
    5.3637   -9.8078   23.9356 F   0  0  0  0  0  0  0  0  0  0  0  0
    5.1864   -9.4161   21.8018 F   0  0  0  0  0  0  0  0  0  0  0  0
    2.9965   -9.2938   23.1243 Cl  0  0  0  0  0  0  0  0  0  0  0  0
    1.9671  -13.2761   25.0624 O   0  0  0  0  0  0  0  0  0  0  0  0
  1  2  1  0
  2  3  1  0
  2  4  1  0
  2  5  1  0
  5  6  2  0
  6  7  1  0
  7  8  2  0
  8  9  1  0
  9 10  2  0
  9 11  1  0
 11 12  1  0
 12 13  1  0
 13 14  1  0
 13 15  1  0
 13 16  1  0
  8 17  1  0
 17  5  1  0
M  END
>  <inchikey>  (1212) 
BTBDDCQHSAYFML-UHFFFAOYSA-N

>  <tags>  (1212) 
fragmenstein_placed,CpKRS_FrAncestor_bulkdock_iter2

>  <ref_pdb>  (1212) 
x0646a

>  <energy_score>  (1212) 
-9.815349

>  <distance_score>  (1212) 
0.857292

>  <HIPPO Pose ID>  (1212) 
58742

>  <ref_mols>  (1212) 
x0504a

>  <smiles>  (1212) 
CC(C)(C)c1ncc(C(=O)NCC(F)(F)Cl)o1

>  <HIPPO Compound ID>  (1212) 
446367

>  <alias>  (1212) 
BTBDDCQHSAYFML-UHFFFAOYSA-N-P48

>  <subsites>  (1212) 


>  <placement_batch>  (1212) 
CpKRS_FrAncestor_bulkdock_iter2

>  <name>  (1212) 
BTBDDCQHSAYFML-UHFFFAOYSA-N-P48

$$$$
NNKXRMAYHWPESJ-UHFFFAOYSA-N-P48
     RDKit          3D

 17 17  0  0  0  0  0  0  0  0999 V2000
   -0.5830  -14.9736   24.4365 C   0  0  0  0  0  0  0  0  0  0  0  0
   -0.3389  -13.8858   25.4958 C   0  0  0  0  0  0  0  0  0  0  0  0
   -0.7273  -12.5251   24.8908 C   0  0  0  0  0  0  0  0  0  0  0  0
   -1.2250  -14.1300   26.7150 C   0  0  0  0  0  0  0  0  0  0  0  0
    1.1134  -13.9319   25.8928 C   0  0  0  0  0  0  0  0  0  0  0  0
    1.7244  -14.6374   26.8270 N   0  0  0  0  0  0  0  0  0  0  0  0
    3.0642  -14.4119   26.5855 C   0  0  0  0  0  0  0  0  0  0  0  0
    3.2168  -13.5882   25.4945 C   0  0  0  0  0  0  0  0  0  0  0  0
    4.3577  -13.0570   24.7753 C   0  0  0  0  0  0  0  0  0  0  0  0
    5.4511  -13.2380   25.1306 O   0  0  0  0  0  0  0  0  0  0  0  0
    3.8178  -12.2472   23.5839 N   0  0  0  0  0  0  0  0  0  0  0  0
    4.5165  -11.5647   22.5193 C   0  0  0  0  0  0  0  0  0  0  0  0
    4.5339  -10.0467   22.6602 C   0  0  0  0  0  0  0  0  0  0  0  0
    5.0983   -9.6342   23.8147 F   0  0  0  0  0  0  0  0  0  0  0  0
    5.2171   -9.4765   21.6424 F   0  0  0  0  0  0  0  0  0  0  0  0
    3.2775   -9.5253   22.6280 F   0  0  0  0  0  0  0  0  0  0  0  0
    1.9592  -13.2614   25.0599 O   0  0  0  0  0  0  0  0  0  0  0  0
  1  2  1  0
  2  3  1  0
  2  4  1  0
  2  5  1  0
  5  6  2  0
  6  7  1  0
  7  8  2  0
  8  9  1  0
  9 10  2  0
  9 11  1  0
 11 12  1  0
 12 13  1  0
 13 14  1  0
 13 15  1  0
 13 16  1  0
  8 17  1  0
 17  5  1  0
M  END
>  <inchikey>  (1213) 
NNKXRMAYHWPESJ-UHFFFAOYSA-N

>  <tags>  (1213) 
fragmenstein_placed,CpKRS_FrAncestor_bulkdock_iter2

>  <ref_pdb>  (1213) 
x0646a

>  <energy_score>  (1213) 
-29.953131

>  <distance_score>  (1213) 
0.836103

>  <HIPPO Pose ID>  (1213) 
58745

>  <ref_mols>  (1213) 
x0504a

>  <smiles>  (1213) 
CC(C)(C)c1ncc(C(=O)NCC(F)(F)F)o1

>  <HIPPO Compound ID>  (1213) 
446368

>  <alias>  (1213) 
NNKXRMAYHWPESJ-UHFFFAOYSA-N-P48

>  <subsites>  (1213) 


>  <placement_batch>  (1213) 
CpKRS_FrAncestor_bulkdock_iter2

>  <name>  (1213) 
NNKXRMAYHWPESJ-UHFFFAOYSA-N-P48

$$$$
ZEKKMZYYINKEDX-UHFFFAOYSA-N-P48
     RDKit          3D

 16 16  0  0  0  0  0  0  0  0999 V2000
   -0.6610  -12.5527   24.8806 C   0  0  0  0  0  0  0  0  0  0  0  0
   -0.2964  -13.9153   25.4958 C   0  0  0  0  0  0  0  0  0  0  0  0
   -0.5494  -15.0048   24.4402 C   0  0  0  0  0  0  0  0  0  0  0  0
   -1.1936  -14.1392   26.7112 C   0  0  0  0  0  0  0  0  0  0  0  0
    1.1529  -13.9793   25.9008 C   0  0  0  0  0  0  0  0  0  0  0  0
    1.7471  -14.6725   26.8545 N   0  0  0  0  0  0  0  0  0  0  0  0
    3.0919  -14.4710   26.6183 C   0  0  0  0  0  0  0  0  0  0  0  0
    3.2645  -13.6748   25.5102 C   0  0  0  0  0  0  0  0  0  0  0  0
    4.4179  -13.1641   24.7956 C   0  0  0  0  0  0  0  0  0  0  0  0
    5.5051  -13.3185   25.1820 O   0  0  0  0  0  0  0  0  0  0  0  0
    3.8941  -12.3847   23.5758 N   0  0  0  0  0  0  0  0  0  0  0  0
    4.6062  -11.7092   22.5198 C   0  0  0  0  0  0  0  0  0  0  0  0
    4.4778  -10.1967   22.6098 C   0  0  0  0  0  0  0  0  0  0  0  0
    5.0680   -9.7078   23.7274 F   0  0  0  0  0  0  0  0  0  0  0  0
    5.0908   -9.6082   21.5544 F   0  0  0  0  0  0  0  0  0  0  0  0
    2.0139  -13.3415   25.0580 O   0  0  0  0  0  0  0  0  0  0  0  0
  1  2  1  0
  2  3  1  0
  2  4  1  0
  2  5  1  0
  5  6  2  0
  6  7  1  0
  7  8  2  0
  8  9  1  0
  9 10  2  0
  9 11  1  0
 11 12  1  0
 12 13  1  0
 13 14  1  0
 13 15  1  0
  8 16  1  0
 16  5  1  0
M  END
>  <inchikey>  (1214) 
ZEKKMZYYINKEDX-UHFFFAOYSA-N

>  <tags>  (1214) 
fragmenstein_placed,CpKRS_FrAncestor_bulkdock_iter2

>  <ref_pdb>  (1214) 
x0646a

>  <energy_score>  (1214) 
-27.348543

>  <distance_score>  (1214) 
0.825182

>  <HIPPO Pose ID>  (1214) 
58748

>  <ref_mols>  (1214) 
x0504a

>  <smiles>  (1214) 
CC(C)(C)c1ncc(C(=O)NCC(F)F)o1

>  <HIPPO Compound ID>  (1214) 
446369

>  <alias>  (1214) 
ZEKKMZYYINKEDX-UHFFFAOYSA-N-P48

>  <subsites>  (1214) 


>  <placement_batch>  (1214) 
CpKRS_FrAncestor_bulkdock_iter2

>  <name>  (1214) 
ZEKKMZYYINKEDX-UHFFFAOYSA-N-P48

$$$$
GIXRSWVHXOAODR-UHFFFAOYSA-N-P44
     RDKit          3D

 18 19  0  0  0  0  0  0  0  0999 V2000
   -9.5402  -15.6197   49.3608 C   0  0  0  0  0  0  0  0  0  0  0  0
   -9.9879  -14.1688   49.5925 C   0  0  0  0  0  0  0  0  0  0  0  0
   -9.4505  -13.7397   50.9844 C   0  0  0  0  0  0  0  0  0  0  0  0
  -11.5254  -14.1130   49.6913 C   0  0  0  0  0  0  0  0  0  0  0  0
   -9.4431  -13.2350   48.5179 C   0  0  0  0  0  0  0  0  0  0  0  0
   -8.2468  -12.5825   48.7769 N   0  0  0  0  0  0  0  0  0  0  0  0
   -8.0453  -11.7636   47.7772 C   0  0  0  0  0  0  0  0  0  0  0  0
   -9.0522  -11.8438   46.8708 N   0  0  0  0  0  0  0  0  0  0  0  0
   -9.9502  -12.7994   47.2947 C   0  0  0  0  0  0  0  0  0  0  0  0
  -11.1565  -13.0677   46.5407 C   0  0  0  0  0  0  0  0  0  0  0  0
  -11.8046  -12.1780   46.1649 O   0  0  0  0  0  0  0  0  0  0  0  0
  -11.3398  -14.5765   46.3564 N   0  0  0  0  0  0  0  0  0  0  0  0
  -12.4126  -15.3219   45.7498 C   0  0  0  0  0  0  0  0  0  0  0  0
  -12.3043  -15.3412   44.2193 C   0  0  0  0  0  0  0  0  0  0  0  0
  -11.4414  -16.5033   43.7240 C   0  0  0  0  0  0  0  0  0  0  0  0
  -12.3885  -17.6892   43.5412 C   0  0  0  0  0  0  0  0  0  0  0  0
  -13.8041  -17.1370   43.6538 C   0  0  0  0  0  0  0  0  0  0  0  0
  -13.6481  -15.6289   43.5476 C   0  0  0  0  0  0  0  0  0  0  0  0
  1  2  1  0
  2  3  1  0
  2  4  1  0
  2  5  1  0
  5  6  1  0
  6  7  2  0
  7  8  1  0
  8  9  1  0
  9 10  1  0
 10 11  2  0
 10 12  1  0
 12 13  1  0
 13 14  1  0
 14 15  1  0
 15 16  1  0
 16 17  1  0
 17 18  1  0
  9  5  2  0
 18 14  1  0
M  END
>  <inchikey>  (1215) 
GIXRSWVHXOAODR-UHFFFAOYSA-N

>  <tags>  (1215) 
fragmenstein_placed,CpKRS_FrAncestor_bulkdock_iter2

>  <ref_pdb>  (1215) 
x0646a

>  <energy_score>  (1215) 
-29.569614

>  <distance_score>  (1215) 
0.358686

>  <HIPPO Pose ID>  (1215) 
58752

>  <ref_mols>  (1215) 
x0502b

>  <smiles>  (1215) 
CC(C)(C)c1nc[nH]c1C(=O)NCC1CCCC1

>  <HIPPO Compound ID>  (1215) 
347546

>  <alias>  (1215) 
GIXRSWVHXOAODR-UHFFFAOYSA-N-P44

>  <subsites>  (1215) 


>  <placement_batch>  (1215) 
CpKRS_FrAncestor_bulkdock_iter2

>  <name>  (1215) 
GIXRSWVHXOAODR-UHFFFAOYSA-N-P44

$$$$
JURDAJDWTPDQBY-UHFFFAOYSA-N-P44
     RDKit          3D

 18 19  0  0  0  0  0  0  0  0999 V2000
  -11.4741  -14.1163   49.7072 C   0  0  0  0  0  0  0  0  0  0  0  0
   -9.9347  -14.1431   49.6294 C   0  0  0  0  0  0  0  0  0  0  0  0
   -9.4553  -15.5878   49.4239 C   0  0  0  0  0  0  0  0  0  0  0  0
   -9.4248  -13.6844   51.0223 C   0  0  0  0  0  0  0  0  0  0  0  0
   -9.3924  -13.2132   48.5500 C   0  0  0  0  0  0  0  0  0  0  0  0
   -8.2077  -12.5415   48.8121 N   0  0  0  0  0  0  0  0  0  0  0  0
   -8.0071  -11.7328   47.8039 C   0  0  0  0  0  0  0  0  0  0  0  0
   -9.0053  -11.8358   46.8901 N   0  0  0  0  0  0  0  0  0  0  0  0
   -9.8926  -12.7998   47.3166 C   0  0  0  0  0  0  0  0  0  0  0  0
  -11.0851  -13.1009   46.5548 C   0  0  0  0  0  0  0  0  0  0  0  0
  -11.7510  -12.2308   46.1647 O   0  0  0  0  0  0  0  0  0  0  0  0
  -11.2314  -14.6155   46.3857 N   0  0  0  0  0  0  0  0  0  0  0  0
  -12.2816  -15.3923   45.7795 C   0  0  0  0  0  0  0  0  0  0  0  0
  -12.2505  -15.3080   44.2446 C   0  0  2  0  0  0  0  0  0  0  0  0
  -13.6486  -15.4102   43.6252 C   0  0  0  0  0  0  0  0  0  0  0  0
  -14.1102  -16.8502   43.7561 C   0  0  0  0  0  0  0  0  0  0  0  0
  -12.6275  -17.8319   43.4425 S   0  0  0  0  0  0  0  0  0  0  0  0
  -11.4564  -16.4557   43.6269 C   0  0  0  0  0  0  0  0  0  0  0  0
  1  2  1  0
  2  3  1  0
  2  4  1  0
  2  5  1  0
  5  6  1  0
  6  7  2  0
  7  8  1  0
  8  9  1  0
  9 10  1  0
 10 11  2  0
 10 12  1  0
 12 13  1  0
 14 13  1  1
 14 15  1  0
 15 16  1  0
 16 17  1  0
 17 18  1  0
  9  5  2  0
 18 14  1  0
M  END
>  <inchikey>  (1216) 
JURDAJDWTPDQBY-UHFFFAOYSA-N

>  <tags>  (1216) 
fragmenstein_placed,CpKRS_FrAncestor_bulkdock_iter2

>  <ref_pdb>  (1216) 
x0646a

>  <energy_score>  (1216) 
-26.028078

>  <distance_score>  (1216) 
0.445902

>  <HIPPO Pose ID>  (1216) 
58755

>  <ref_mols>  (1216) 
x0502b

>  <smiles>  (1216) 
CC(C)(C)c1nc[nH]c1C(=O)NCC1CCSC1

>  <HIPPO Compound ID>  (1216) 
350018

>  <alias>  (1216) 
JURDAJDWTPDQBY-UHFFFAOYSA-N-P44

>  <subsites>  (1216) 


>  <placement_batch>  (1216) 
CpKRS_FrAncestor_bulkdock_iter2

>  <name>  (1216) 
JURDAJDWTPDQBY-UHFFFAOYSA-N-P44

$$$$
FCFDDBNACIYPFQ-UHFFFAOYSA-N-P48
     RDKit          3D

 16 16  0  0  0  0  0  0  0  0999 V2000
    4.9050  -16.0378   26.0606 C   0  0  0  0  0  0  0  0  0  0  0  0
    3.4225  -16.0336   26.4461 C   0  0  0  0  0  0  0  0  0  0  0  0
    2.7072  -17.0480   25.5261 C   0  0  0  0  0  0  0  0  0  0  0  0
    3.2831  -16.4976   27.9162 C   0  0  0  0  0  0  0  0  0  0  0  0
    2.7279  -14.6936   26.3145 C   0  0  0  0  0  0  0  0  0  0  0  0
    1.4641  -14.6078   26.8848 N   0  0  0  0  0  0  0  0  0  0  0  0
    1.0618  -13.3821   26.7008 C   0  0  0  0  0  0  0  0  0  0  0  0
    1.9861  -12.6661   26.0080 N   0  0  0  0  0  0  0  0  0  0  0  0
    3.0412  -13.4959   25.6768 C   0  0  0  0  0  0  0  0  0  0  0  0
    4.2046  -13.0701   24.9117 C   0  0  0  0  0  0  0  0  0  0  0  0
    5.2818  -13.2849   25.2917 O   0  0  0  0  0  0  0  0  0  0  0  0
    3.7216  -12.3376   23.6511 N   0  0  0  0  0  0  0  0  0  0  0  0
    4.4665  -11.7939   22.5371 C   0  0  0  0  0  0  0  0  0  0  0  0
    5.0390  -10.3903   22.7703 C   0  0  2  0  0  0  0  0  0  0  0  0
    5.5462  -10.2695   24.0217 F   0  0  0  0  0  0  0  0  0  0  0  0
    3.8143   -9.1218   22.5858 Cl  0  0  0  0  0  0  0  0  0  0  0  0
  1  2  1  0
  2  3  1  0
  2  4  1  0
  2  5  1  0
  5  6  1  0
  6  7  2  0
  7  8  1  0
  8  9  1  0
  9 10  1  0
 10 11  2  0
 10 12  1  0
 12 13  1  0
 13 14  1  0
 14 15  1  1
 14 16  1  0
  9  5  2  0
M  END
>  <inchikey>  (1217) 
FCFDDBNACIYPFQ-UHFFFAOYSA-N

>  <tags>  (1217) 
fragmenstein_placed,CpKRS_FrAncestor_bulkdock_iter2

>  <ref_pdb>  (1217) 
x0646a

>  <energy_score>  (1217) 
-17.589035

>  <distance_score>  (1217) 
0.900871

>  <HIPPO Pose ID>  (1217) 
58757

>  <ref_mols>  (1217) 
x0504a

>  <smiles>  (1217) 
CC(C)(C)c1nc[nH]c1C(=O)NCC(F)Cl

>  <HIPPO Compound ID>  (1217) 
446370

>  <alias>  (1217) 
FCFDDBNACIYPFQ-UHFFFAOYSA-N-P48

>  <subsites>  (1217) 


>  <placement_batch>  (1217) 
CpKRS_FrAncestor_bulkdock_iter2

>  <name>  (1217) 
FCFDDBNACIYPFQ-UHFFFAOYSA-N-P48

$$$$
GMMGNQMVPXBQMI-UHFFFAOYSA-N-P48
     RDKit          3D

 17 17  0  0  0  0  0  0  0  0999 V2000
    3.2795  -16.5253   27.9888 C   0  0  0  0  0  0  0  0  0  0  0  0
    3.3984  -16.0349   26.5250 C   0  0  0  0  0  0  0  0  0  0  0  0
    4.8794  -15.9690   26.1383 C   0  0  0  0  0  0  0  0  0  0  0  0
    2.7242  -17.0605   25.5877 C   0  0  0  0  0  0  0  0  0  0  0  0
    2.6521  -14.7223   26.4183 C   0  0  0  0  0  0  0  0  0  0  0  0
    1.3972  -14.6857   27.0105 N   0  0  0  0  0  0  0  0  0  0  0  0
    0.9468  -13.4746   26.8440 C   0  0  0  0  0  0  0  0  0  0  0  0
    1.8354  -12.7175   26.1482 N   0  0  0  0  0  0  0  0  0  0  0  0
    2.9067  -13.5126   25.7811 C   0  0  0  0  0  0  0  0  0  0  0  0
    4.0247  -13.0513   24.9750 C   0  0  0  0  0  0  0  0  0  0  0  0
    5.1240  -13.1960   25.3189 O   0  0  0  0  0  0  0  0  0  0  0  0
    3.4580  -12.3944   23.7131 N   0  0  0  0  0  0  0  0  0  0  0  0
    4.1245  -11.6859   22.6417 C   0  0  0  0  0  0  0  0  0  0  0  0
    4.3499  -10.1882   22.8864 C   0  0  0  0  0  0  0  0  0  0  0  0
    5.1745   -9.9733   23.9380 F   0  0  0  0  0  0  0  0  0  0  0  0
    4.9493   -9.6342   21.8008 F   0  0  0  0  0  0  0  0  0  0  0  0
    2.8221   -9.3056   23.1978 Cl  0  0  0  0  0  0  0  0  0  0  0  0
  1  2  1  0
  2  3  1  0
  2  4  1  0
  2  5  1  0
  5  6  1  0
  6  7  2  0
  7  8  1  0
  8  9  1  0
  9 10  1  0
 10 11  2  0
 10 12  1  0
 12 13  1  0
 13 14  1  0
 14 15  1  0
 14 16  1  0
 14 17  1  0
  9  5  2  0
M  END
>  <inchikey>  (1218) 
GMMGNQMVPXBQMI-UHFFFAOYSA-N

>  <tags>  (1218) 
fragmenstein_placed,CpKRS_FrAncestor_bulkdock_iter2

>  <ref_pdb>  (1218) 
x0646a

>  <energy_score>  (1218) 
-13.687331

>  <distance_score>  (1218) 
0.677127

>  <HIPPO Pose ID>  (1218) 
58760

>  <ref_mols>  (1218) 
x0504a

>  <smiles>  (1218) 
CC(C)(C)c1nc[nH]c1C(=O)NCC(F)(F)Cl

>  <HIPPO Compound ID>  (1218) 
223659

>  <alias>  (1218) 
GMMGNQMVPXBQMI-UHFFFAOYSA-N-P48

>  <subsites>  (1218) 


>  <placement_batch>  (1218) 
CpKRS_FrAncestor_bulkdock_iter2

>  <name>  (1218) 
GMMGNQMVPXBQMI-UHFFFAOYSA-N-P48

$$$$
QHSZLDTXIALJRP-UHFFFAOYSA-N-P49
     RDKit          3D

 17 17  0  0  0  0  0  0  0  0999 V2000
    3.0017  -16.5096   27.8115 C   0  0  0  0  0  0  0  0  0  0  0  0
    3.2470  -15.9825   26.3781 C   0  0  0  0  0  0  0  0  0  0  0  0
    2.5914  -16.9566   25.3762 C   0  0  0  0  0  0  0  0  0  0  0  0
    4.7557  -15.9847   26.1218 C   0  0  0  0  0  0  0  0  0  0  0  0
    2.5700  -14.6294   26.2528 C   0  0  0  0  0  0  0  0  0  0  0  0
    1.3191  -14.5114   26.8591 N   0  0  0  0  0  0  0  0  0  0  0  0
    0.9370  -13.2804   26.6723 C   0  0  0  0  0  0  0  0  0  0  0  0
    1.8571  -12.5893   25.9537 N   0  0  0  0  0  0  0  0  0  0  0  0
    2.8907  -13.4402   25.5990 C   0  0  0  0  0  0  0  0  0  0  0  0
    4.0512  -12.9979   24.8299 C   0  0  0  0  0  0  0  0  0  0  0  0
    5.1254  -13.3312   25.1232 O   0  0  0  0  0  0  0  0  0  0  0  0
    3.5738  -12.0184   23.7470 N   0  0  0  0  0  0  0  0  0  0  0  0
    4.3289  -11.1629   22.8514 C   0  0  0  0  0  0  0  0  0  0  0  0
    4.5116   -9.7376   23.3804 C   0  0  0  0  0  0  0  0  0  0  0  0
    3.3521   -9.0332   23.2783 F   0  0  0  0  0  0  0  0  0  0  0  0
    5.4423   -9.0624   22.6720 F   0  0  0  0  0  0  0  0  0  0  0  0
    4.8860   -9.7133   24.6788 F   0  0  0  0  0  0  0  0  0  0  0  0
  1  2  1  0
  2  3  1  0
  2  4  1  0
  2  5  1  0
  5  6  1  0
  6  7  2  0
  7  8  1  0
  8  9  1  0
  9 10  1  0
 10 11  2  0
 10 12  1  0
 12 13  1  0
 13 14  1  0
 14 15  1  0
 14 16  1  0
 14 17  1  0
  9  5  2  0
M  END
>  <inchikey>  (1219) 
QHSZLDTXIALJRP-UHFFFAOYSA-N

>  <tags>  (1219) 
fragmenstein_placed,CpKRS_FrAncestor_bulkdock_iter2

>  <ref_pdb>  (1219) 
x0646a

>  <energy_score>  (1219) 
-7.859702

>  <distance_score>  (1219) 
0.770927

>  <HIPPO Pose ID>  (1219) 
58764

>  <ref_mols>  (1219) 
x0504b

>  <smiles>  (1219) 
CC(C)(C)c1nc[nH]c1C(=O)NCC(F)(F)F

>  <HIPPO Compound ID>  (1219) 
446371

>  <alias>  (1219) 
QHSZLDTXIALJRP-UHFFFAOYSA-N-P49

>  <subsites>  (1219) 


>  <placement_batch>  (1219) 
CpKRS_FrAncestor_bulkdock_iter2

>  <name>  (1219) 
QHSZLDTXIALJRP-UHFFFAOYSA-N-P49

$$$$
FWVZPKGANKXDKC-UHFFFAOYSA-N-P48
     RDKit          3D

 16 16  0  0  0  0  0  0  0  0999 V2000
    5.1576  -15.5491   26.0778 C   0  0  0  0  0  0  0  0  0  0  0  0
    3.7564  -15.8380   26.6297 C   0  0  0  0  0  0  0  0  0  0  0  0
    3.2024  -17.0435   25.8396 C   0  0  0  0  0  0  0  0  0  0  0  0
    3.8824  -16.2005   28.1329 C   0  0  0  0  0  0  0  0  0  0  0  0
    2.7650  -14.6956   26.5304 C   0  0  0  0  0  0  0  0  0  0  0  0
    1.5713  -14.8728   27.2193 N   0  0  0  0  0  0  0  0  0  0  0  0
    0.9155  -13.7506   27.1121 C   0  0  0  0  0  0  0  0  0  0  0  0
    1.6113  -12.8500   26.3684 N   0  0  0  0  0  0  0  0  0  0  0  0
    2.7590  -13.4619   25.8858 C   0  0  0  0  0  0  0  0  0  0  0  0
    3.7117  -12.8141   24.9939 C   0  0  0  0  0  0  0  0  0  0  0  0
    4.8577  -12.8941   25.1623 O   0  0  0  0  0  0  0  0  0  0  0  0
    2.9160  -12.0497   23.9326 N   0  0  0  0  0  0  0  0  0  0  0  0
    3.3635  -11.2947   22.7916 C   0  0  0  0  0  0  0  0  0  0  0  0
    4.6120  -10.4474   23.0171 C   0  0  0  0  0  0  0  0  0  0  0  0
    4.3149   -9.4257   23.8680 F   0  0  0  0  0  0  0  0  0  0  0  0
    4.9630   -9.8555   21.8438 F   0  0  0  0  0  0  0  0  0  0  0  0
  1  2  1  0
  2  3  1  0
  2  4  1  0
  2  5  1  0
  5  6  1  0
  6  7  2  0
  7  8  1  0
  8  9  1  0
  9 10  1  0
 10 11  2  0
 10 12  1  0
 12 13  1  0
 13 14  1  0
 14 15  1  0
 14 16  1  0
  9  5  2  0
M  END
>  <inchikey>  (1220) 
FWVZPKGANKXDKC-UHFFFAOYSA-N

>  <tags>  (1220) 
fragmenstein_placed,CpKRS_FrAncestor_bulkdock_iter2

>  <ref_pdb>  (1220) 
x0646a

>  <energy_score>  (1220) 
-9.272834

>  <distance_score>  (1220) 
0.608169

>  <HIPPO Pose ID>  (1220) 
58766

>  <ref_mols>  (1220) 
x0504a

>  <smiles>  (1220) 
CC(C)(C)c1nc[nH]c1C(=O)NCC(F)F

>  <HIPPO Compound ID>  (1220) 
446372

>  <alias>  (1220) 
FWVZPKGANKXDKC-UHFFFAOYSA-N-P48

>  <subsites>  (1220) 


>  <placement_batch>  (1220) 
CpKRS_FrAncestor_bulkdock_iter2

>  <name>  (1220) 
FWVZPKGANKXDKC-UHFFFAOYSA-N-P48

$$$$
XXMQWBUTTAURTB-UHFFFAOYSA-N-P49
     RDKit          3D

 15 15  0  0  0  0  0  0  0  0999 V2000
    2.7694  -17.0038   25.6945 C   0  0  0  0  0  0  0  0  0  0  0  0
    3.2105  -15.8721   26.6396 C   0  0  0  0  0  0  0  0  0  0  0  0
    3.0152  -16.3392   28.1005 C   0  0  0  0  0  0  0  0  0  0  0  0
    4.7046  -15.5940   26.4181 C   0  0  0  0  0  0  0  0  0  0  0  0
    2.3418  -14.6487   26.4116 C   0  0  0  0  0  0  0  0  0  0  0  0
    1.2393  -14.4455   27.2329 N   0  0  0  0  0  0  0  0  0  0  0  0
    0.6772  -13.3433   26.8162 C   0  0  0  0  0  0  0  0  0  0  0  0
    1.3566  -12.8064   25.7689 N   0  0  0  0  0  0  0  0  0  0  0  0
    2.4136  -13.6342   25.4663 C   0  0  0  0  0  0  0  0  0  0  0  0
    3.3038  -13.4369   24.3434 C   0  0  0  0  0  0  0  0  0  0  0  0
    3.5452  -14.3055   23.6107 O   0  0  0  0  0  0  0  0  0  0  0  0
    3.7530  -11.9711   24.3292 N   0  0  0  0  0  0  0  0  0  0  0  0
    4.6725  -11.2836   23.4621 C   0  0  0  0  0  0  0  0  0  0  0  0
    4.5251   -9.7788   23.5384 C   0  0  0  0  0  0  0  0  0  0  0  0
    4.7284   -9.3831   24.8267 F   0  0  0  0  0  0  0  0  0  0  0  0
  1  2  1  0
  2  3  1  0
  2  4  1  0
  2  5  1  0
  5  6  1  0
  6  7  2  0
  7  8  1  0
  8  9  1  0
  9 10  1  0
 10 11  2  0
 10 12  1  0
 12 13  1  0
 13 14  1  0
 14 15  1  0
  9  5  2  0
M  END
>  <inchikey>  (1221) 
XXMQWBUTTAURTB-UHFFFAOYSA-N

>  <tags>  (1221) 
fragmenstein_placed,CpKRS_FrAncestor_bulkdock_iter2

>  <ref_pdb>  (1221) 
x0646a

>  <energy_score>  (1221) 
-10.097201

>  <distance_score>  (1221) 
0.993914

>  <HIPPO Pose ID>  (1221) 
58770

>  <ref_mols>  (1221) 
x0504b

>  <smiles>  (1221) 
CC(C)(C)c1nc[nH]c1C(=O)NCCF

>  <HIPPO Compound ID>  (1221) 
446373

>  <alias>  (1221) 
XXMQWBUTTAURTB-UHFFFAOYSA-N-P49

>  <subsites>  (1221) 


>  <placement_batch>  (1221) 
CpKRS_FrAncestor_bulkdock_iter2

>  <name>  (1221) 
XXMQWBUTTAURTB-UHFFFAOYSA-N-P49

$$$$
HKRJQMMYKDMLMH-ZCFIWIBFSA-N-P48
     RDKit          3D

 19 19  0  0  0  0  0  0  0  0999 V2000
    3.1704  -17.2980   26.3089 C   0  0  0  0  0  0  0  0  0  0  0  0
    3.7914  -15.9511   25.8980 C   0  0  0  0  0  0  0  0  0  0  0  0
    5.1721  -15.8413   26.5544 C   0  0  0  0  0  0  0  0  0  0  0  0
    3.9495  -16.0003   24.3626 C   0  0  0  0  0  0  0  0  0  0  0  0
    2.8812  -14.8114   26.3144 C   0  0  0  0  0  0  0  0  0  0  0  0
    1.8020  -15.0475   27.1455 N   0  0  0  0  0  0  0  0  0  0  0  0
    1.1837  -13.9010   27.2681 C   0  0  0  0  0  0  0  0  0  0  0  0
    1.8040  -12.9196   26.5505 N   0  0  0  0  0  0  0  0  0  0  0  0
    2.9034  -13.4762   25.9298 C   0  0  0  0  0  0  0  0  0  0  0  0
    3.8789  -12.7939   25.1008 C   0  0  0  0  0  0  0  0  0  0  0  0
    5.0142  -12.9578   25.2645 O   0  0  0  0  0  0  0  0  0  0  0  0
    3.1401  -11.9760   24.0473 N   0  0  0  0  0  0  0  0  0  0  0  0
    3.6419  -11.2483   22.8933 C   0  0  2  0  0  0  0  0  0  0  0  0
    4.3150  -12.2039   21.9231 C   0  0  0  0  0  0  0  0  0  0  0  0
    5.4753  -12.6727   22.4377 F   0  0  0  0  0  0  0  0  0  0  0  0
    4.6127  -10.1087   23.1918 C   0  0  0  0  0  0  0  0  0  0  0  0
    5.7186  -10.4616   23.8627 F   0  0  0  0  0  0  0  0  0  0  0  0
    4.9904   -9.5006   22.0389 F   0  0  0  0  0  0  0  0  0  0  0  0
    3.9813   -9.1534   23.9255 F   0  0  0  0  0  0  0  0  0  0  0  0
  1  2  1  0
  2  3  1  0
  2  4  1  0
  2  5  1  0
  5  6  1  0
  6  7  2  0
  7  8  1  0
  8  9  1  0
  9 10  1  0
 10 11  2  0
 10 12  1  0
 12 13  1  0
 13 14  1  6
 14 15  1  0
 13 16  1  0
 16 17  1  0
 16 18  1  0
 16 19  1  0
  9  5  2  0
M  END
>  <inchikey>  (1222) 
HKRJQMMYKDMLMH-UHFFFAOYSA-N

>  <tags>  (1222) 
fragmenstein_placed,CpKRS_FrAncestor_bulkdock_iter2

>  <ref_pdb>  (1222) 
x0646a

>  <energy_score>  (1222) 
-9.739653

>  <distance_score>  (1222) 
0.6372

>  <HIPPO Pose ID>  (1222) 
58772

>  <ref_mols>  (1222) 
x0504a

>  <smiles>  (1222) 
CC(C)(C)c1nc[nH]c1C(=O)N[C@H](CF)C(F)(F)F

>  <HIPPO Compound ID>  (1222) 
428035

>  <alias>  (1222) 
HKRJQMMYKDMLMH-ZCFIWIBFSA-N-P48

>  <subsites>  (1222) 


>  <placement_batch>  (1222) 
CpKRS_FrAncestor_bulkdock_iter2

>  <name>  (1222) 
HKRJQMMYKDMLMH-ZCFIWIBFSA-N-P48

$$$$
DCFRLLOEGZBAGE-UHFFFAOYSA-N-P4
     RDKit          3D

 17 18  0  0  0  0  0  0  0  0999 V2000
    0.7569  -16.4810   27.3855 C   0  0  0  0  0  0  0  0  0  0  0  0
    2.2135  -16.0038   27.4820 C   0  0  0  0  0  0  0  0  0  0  0  0
    2.6535  -15.8398   28.9422 C   0  0  0  0  0  0  0  0  0  0  0  0
    3.1337  -17.0573   26.8550 C   0  0  0  0  0  0  0  0  0  0  0  0
    2.2563  -14.6650   26.7957 C   0  0  0  0  0  0  0  0  0  0  0  0
    1.3032  -13.7482   26.8900 N   0  0  0  0  0  0  0  0  0  0  0  0
    1.5694  -12.6387   26.1062 N   0  0  0  0  0  0  0  0  0  0  0  0
    2.7122  -12.7769   25.4787 C   0  0  0  0  0  0  0  0  0  0  0  0
    3.3326  -11.8793   24.6879 N   0  0  0  0  0  0  0  0  0  0  0  0
    4.6188  -12.0050   23.8499 C   0  0  0  0  0  0  0  0  0  0  0  0
    5.3030  -12.9265   23.6496 O   0  0  0  0  0  0  0  0  0  0  0  0
    4.9605  -10.6219   23.3220 C   0  0  1  0  0  0  0  0  0  0  0  0
    5.1346  -10.7352   21.8286 C   0  0  0  0  0  0  0  0  0  0  0  0
    5.1755   -9.2960   21.4227 C   0  0  0  0  0  0  0  0  0  0  0  0
    4.2461   -8.6467   22.4206 C   0  0  0  0  0  0  0  0  0  0  0  0
    4.0110   -9.5726   23.4922 O   0  0  0  0  0  0  0  0  0  0  0  0
    3.5611  -14.2051   25.8037 S   0  0  0  0  0  0  0  0  0  0  0  0
  1  2  1  0
  2  3  1  0
  2  4  1  0
  2  5  1  0
  5  6  2  0
  6  7  1  0
  7  8  2  0
  8  9  1  0
  9 10  1  0
 10 11  2  0
 12 10  1  6
 12 13  1  0
 13 14  1  0
 14 15  1  0
 15 16  1  0
  8 17  1  0
 17  5  1  0
 16 12  1  0
M  END
>  <inchikey>  (1223) 
DCFRLLOEGZBAGE-UHFFFAOYSA-N

>  <tags>  (1223) 
fragmenstein_placed,CpKRS_FrAncestor_bulkdock_iter2

>  <ref_pdb>  (1223) 
x0646a

>  <energy_score>  (1223) 
-85.499287

>  <distance_score>  (1223) 
0.56413

>  <HIPPO Pose ID>  (1223) 
58775

>  <ref_mols>  (1223) 
x0407a

>  <smiles>  (1223) 
CC(C)(C)c1nnc(NC(=O)C2CCCO2)s1

>  <HIPPO Compound ID>  (1223) 
159980

>  <alias>  (1223) 
DCFRLLOEGZBAGE-UHFFFAOYSA-N-P4

>  <subsites>  (1223) 


>  <placement_batch>  (1223) 
CpKRS_FrAncestor_bulkdock_iter2

>  <name>  (1223) 
DCFRLLOEGZBAGE-UHFFFAOYSA-N-P4

$$$$
LULLAAGENVAYAN-UHFFFAOYSA-N-P44
     RDKit          3D

 18 19  0  0  0  0  0  0  0  0999 V2000
  -11.5006  -14.0876   49.8587 C   0  0  0  0  0  0  0  0  0  0  0  0
   -9.9731  -14.1847   49.6620 C   0  0  0  0  0  0  0  0  0  0  0  0
   -9.6040  -15.6409   49.3343 C   0  0  0  0  0  0  0  0  0  0  0  0
   -9.3370  -13.8385   51.0345 C   0  0  0  0  0  0  0  0  0  0  0  0
   -9.4714  -13.2338   48.5754 C   0  0  0  0  0  0  0  0  0  0  0  0
   -8.2596  -12.6716   48.7196 N   0  0  0  0  0  0  0  0  0  0  0  0
   -8.1147  -11.8860   47.6491 N   0  0  0  0  0  0  0  0  0  0  0  0
   -9.1975  -11.8751   46.8308 C   0  0  0  0  0  0  0  0  0  0  0  0
  -10.1006  -12.7660   47.3765 C   0  0  0  0  0  0  0  0  0  0  0  0
  -11.4121  -13.0475   46.8118 C   0  0  0  0  0  0  0  0  0  0  0  0
  -12.2312  -12.2211   46.7999 O   0  0  0  0  0  0  0  0  0  0  0  0
  -11.4733  -14.5150   46.3681 N   0  0  0  0  0  0  0  0  0  0  0  0
  -12.5286  -15.2552   45.7262 C   0  0  0  0  0  0  0  0  0  0  0  0
  -12.3597  -15.2889   44.2023 C   0  0  0  0  0  0  0  0  0  0  0  0
  -13.6702  -15.6121   43.4832 C   0  0  0  0  0  0  0  0  0  0  0  0
  -13.7977  -17.1222   43.6001 C   0  0  0  0  0  0  0  0  0  0  0  0
  -12.3678  -17.6435   43.5323 C   0  0  0  0  0  0  0  0  0  0  0  0
  -11.4532  -16.4390   43.7563 C   0  0  0  0  0  0  0  0  0  0  0  0
  1  2  1  0
  2  3  1  0
  2  4  1  0
  2  5  1  0
  5  6  2  0
  6  7  1  0
  7  8  1  0
  8  9  2  0
  9 10  1  0
 10 11  2  0
 10 12  1  0
 12 13  1  0
 13 14  1  0
 14 15  1  0
 15 16  1  0
 16 17  1  0
 17 18  1  0
  9  5  1  0
 18 14  1  0
M  END
>  <inchikey>  (1224) 
LULLAAGENVAYAN-UHFFFAOYSA-N

>  <tags>  (1224) 
fragmenstein_placed,CpKRS_FrAncestor_bulkdock_iter2

>  <ref_pdb>  (1224) 
x0646a

>  <energy_score>  (1224) 
-44.189077

>  <distance_score>  (1224) 
0.461747

>  <HIPPO Pose ID>  (1224) 
58779

>  <ref_mols>  (1224) 
x0502b

>  <smiles>  (1224) 
CC(C)(C)c1n[nH]cc1C(=O)NCC1CCCC1

>  <HIPPO Compound ID>  (1224) 
347544

>  <alias>  (1224) 
LULLAAGENVAYAN-UHFFFAOYSA-N-P44

>  <subsites>  (1224) 


>  <placement_batch>  (1224) 
CpKRS_FrAncestor_bulkdock_iter2

>  <name>  (1224) 
LULLAAGENVAYAN-UHFFFAOYSA-N-P44

$$$$
JDXOPXMQUQMTIE-UHFFFAOYSA-N-P44
     RDKit          3D

 18 19  0  0  0  0  0  0  0  0999 V2000
  -11.4217  -14.0041   49.7381 C   0  0  0  0  0  0  0  0  0  0  0  0
   -9.8885  -14.1208   49.6013 C   0  0  0  0  0  0  0  0  0  0  0  0
   -9.3038  -13.7563   50.9928 C   0  0  0  0  0  0  0  0  0  0  0  0
   -9.5211  -15.5860   49.3203 C   0  0  0  0  0  0  0  0  0  0  0  0
   -9.3421  -13.1893   48.5218 C   0  0  0  0  0  0  0  0  0  0  0  0
   -8.1544  -12.5912   48.7236 N   0  0  0  0  0  0  0  0  0  0  0  0
   -7.9601  -11.7308   47.6674 O   0  0  0  0  0  0  0  0  0  0  0  0
   -9.0095  -11.8125   46.8236 C   0  0  0  0  0  0  0  0  0  0  0  0
   -9.9101  -12.7421   47.2866 C   0  0  0  0  0  0  0  0  0  0  0  0
  -11.1659  -13.0323   46.6223 C   0  0  0  0  0  0  0  0  0  0  0  0
  -11.9156  -12.1687   46.4089 O   0  0  0  0  0  0  0  0  0  0  0  0
  -11.2597  -14.5310   46.3084 N   0  0  0  0  0  0  0  0  0  0  0  0
  -12.3391  -15.3046   45.7488 C   0  0  0  0  0  0  0  0  0  0  0  0
  -12.2863  -15.3291   44.2153 C   0  0  0  0  0  0  0  0  0  0  0  0
  -13.6523  -15.6202   43.5915 C   0  0  0  0  0  0  0  0  0  0  0  0
  -13.8035  -17.1281   43.7073 C   0  0  0  0  0  0  0  0  0  0  0  0
  -12.3924  -17.6801   43.5483 C   0  0  0  0  0  0  0  0  0  0  0  0
  -11.4405  -16.4929   43.6938 C   0  0  0  0  0  0  0  0  0  0  0  0
  1  2  1  0
  2  3  1  0
  2  4  1  0
  2  5  1  0
  5  6  2  0
  6  7  1  0
  7  8  1  0
  8  9  2  0
  9 10  1  0
 10 11  2  0
 10 12  1  0
 12 13  1  0
 13 14  1  0
 14 15  1  0
 15 16  1  0
 16 17  1  0
 17 18  1  0
  9  5  1  0
 18 14  1  0
M  END
>  <inchikey>  (1225) 
JDXOPXMQUQMTIE-UHFFFAOYSA-N

>  <tags>  (1225) 
fragmenstein_placed,CpKRS_FrAncestor_bulkdock_iter2

>  <ref_pdb>  (1225) 
x0646a

>  <energy_score>  (1225) 
-14.60884

>  <distance_score>  (1225) 
0.379026

>  <HIPPO Pose ID>  (1225) 
58782

>  <ref_mols>  (1225) 
x0502b

>  <smiles>  (1225) 
CC(C)(C)c1nocc1C(=O)NCC1CCCC1

>  <HIPPO Compound ID>  (1225) 
333267

>  <alias>  (1225) 
JDXOPXMQUQMTIE-UHFFFAOYSA-N-P44

>  <subsites>  (1225) 


>  <placement_batch>  (1225) 
CpKRS_FrAncestor_bulkdock_iter2

>  <name>  (1225) 
JDXOPXMQUQMTIE-UHFFFAOYSA-N-P44

$$$$
MWBWWZOECPATHK-UHFFFAOYSA-N-P49
     RDKit          3D

 17 17  0  0  0  0  0  0  0  0999 V2000
    3.0451  -16.5507   27.9316 C   0  0  0  0  0  0  0  0  0  0  0  0
    3.2408  -16.0334   26.4846 C   0  0  0  0  0  0  0  0  0  0  0  0
    2.5682  -17.0237   25.5059 C   0  0  0  0  0  0  0  0  0  0  0  0
    4.7406  -16.0383   26.1795 C   0  0  0  0  0  0  0  0  0  0  0  0
    2.5537  -14.6852   26.3547 C   0  0  0  0  0  0  0  0  0  0  0  0
    1.3572  -14.5697   26.9638 N   0  0  0  0  0  0  0  0  0  0  0  0
    0.9121  -13.3008   26.7340 O   0  0  0  0  0  0  0  0  0  0  0  0
    1.7989  -12.6575   25.9525 C   0  0  0  0  0  0  0  0  0  0  0  0
    2.8636  -13.4834   25.6426 C   0  0  0  0  0  0  0  0  0  0  0  0
    4.0315  -13.0692   24.8622 C   0  0  0  0  0  0  0  0  0  0  0  0
    5.0925  -13.4316   25.1673 O   0  0  0  0  0  0  0  0  0  0  0  0
    3.5927  -12.0878   23.7684 N   0  0  0  0  0  0  0  0  0  0  0  0
    4.3783  -11.2648   22.8726 C   0  0  0  0  0  0  0  0  0  0  0  0
    4.5331   -9.8230   23.3781 C   0  0  0  0  0  0  0  0  0  0  0  0
    5.0341   -9.8013   24.6396 F   0  0  0  0  0  0  0  0  0  0  0  0
    5.4083   -9.1412   22.5993 F   0  0  0  0  0  0  0  0  0  0  0  0
    2.9656   -8.9760   23.3579 Cl  0  0  0  0  0  0  0  0  0  0  0  0
  1  2  1  0
  2  3  1  0
  2  4  1  0
  2  5  1  0
  5  6  2  0
  6  7  1  0
  7  8  1  0
  8  9  2  0
  9 10  1  0
 10 11  2  0
 10 12  1  0
 12 13  1  0
 13 14  1  0
 14 15  1  0
 14 16  1  0
 14 17  1  0
  9  5  1  0
M  END
>  <inchikey>  (1226) 
MWBWWZOECPATHK-UHFFFAOYSA-N

>  <tags>  (1226) 
fragmenstein_placed,CpKRS_FrAncestor_bulkdock_iter2

>  <ref_pdb>  (1226) 
x0646a

>  <energy_score>  (1226) 
-13.716369

>  <distance_score>  (1226) 
0.750382

>  <HIPPO Pose ID>  (1226) 
58785

>  <ref_mols>  (1226) 
x0504b

>  <smiles>  (1226) 
CC(C)(C)c1nocc1C(=O)NCC(F)(F)Cl

>  <HIPPO Compound ID>  (1226) 
446374

>  <alias>  (1226) 
MWBWWZOECPATHK-UHFFFAOYSA-N-P49

>  <subsites>  (1226) 


>  <placement_batch>  (1226) 
CpKRS_FrAncestor_bulkdock_iter2

>  <name>  (1226) 
MWBWWZOECPATHK-UHFFFAOYSA-N-P49

$$$$
JQHBJCPUMOHULB-UHFFFAOYSA-N-P48
     RDKit          3D

 17 17  0  0  0  0  0  0  0  0999 V2000
    3.9971  -16.0326   24.2851 C   0  0  0  0  0  0  0  0  0  0  0  0
    3.9194  -16.0182   25.8285 C   0  0  0  0  0  0  0  0  0  0  0  0
    3.3869  -17.4111   26.2196 C   0  0  0  0  0  0  0  0  0  0  0  0
    5.3245  -15.8418   26.4154 C   0  0  0  0  0  0  0  0  0  0  0  0
    2.9819  -14.9323   26.3181 C   0  0  0  0  0  0  0  0  0  0  0  0
    2.0480  -15.2141   27.2421 N   0  0  0  0  0  0  0  0  0  0  0  0
    1.2763  -14.0844   27.3675 O   0  0  0  0  0  0  0  0  0  0  0  0
    1.7559  -13.1252   26.5466 C   0  0  0  0  0  0  0  0  0  0  0  0
    2.8695  -13.5801   25.8813 C   0  0  0  0  0  0  0  0  0  0  0  0
    3.7242  -12.8443   24.9599 C   0  0  0  0  0  0  0  0  0  0  0  0
    4.8735  -13.0043   24.9898 O   0  0  0  0  0  0  0  0  0  0  0  0
    2.8678  -11.9759   24.0369 N   0  0  0  0  0  0  0  0  0  0  0  0
    3.2344  -11.1861   22.8849 C   0  0  0  0  0  0  0  0  0  0  0  0
    4.5022  -10.3362   22.9984 C   0  0  0  0  0  0  0  0  0  0  0  0
    5.6143  -11.0620   23.1886 F   0  0  0  0  0  0  0  0  0  0  0  0
    4.3941   -9.4380   24.0058 F   0  0  0  0  0  0  0  0  0  0  0  0
    4.6778   -9.6192   21.8602 F   0  0  0  0  0  0  0  0  0  0  0  0
  1  2  1  0
  2  3  1  0
  2  4  1  0
  2  5  1  0
  5  6  2  0
  6  7  1  0
  7  8  1  0
  8  9  2  0
  9 10  1  0
 10 11  2  0
 10 12  1  0
 12 13  1  0
 13 14  1  0
 14 15  1  0
 14 16  1  0
 14 17  1  0
  9  5  1  0
M  END
>  <inchikey>  (1227) 
JQHBJCPUMOHULB-UHFFFAOYSA-N

>  <tags>  (1227) 
fragmenstein_placed,CpKRS_FrAncestor_bulkdock_iter2

>  <ref_pdb>  (1227) 
x0646a

>  <energy_score>  (1227) 
-19.766503

>  <distance_score>  (1227) 
0.610835

>  <HIPPO Pose ID>  (1227) 
58787

>  <ref_mols>  (1227) 
x0504a

>  <smiles>  (1227) 
CC(C)(C)c1nocc1C(=O)NCC(F)(F)F

>  <HIPPO Compound ID>  (1227) 
446375

>  <alias>  (1227) 
JQHBJCPUMOHULB-UHFFFAOYSA-N-P48

>  <subsites>  (1227) 


>  <placement_batch>  (1227) 
CpKRS_FrAncestor_bulkdock_iter2

>  <name>  (1227) 
JQHBJCPUMOHULB-UHFFFAOYSA-N-P48

$$$$
JOOUKSCQGIWKNK-UHFFFAOYSA-N-P48
     RDKit          3D

 16 16  0  0  0  0  0  0  0  0999 V2000
    5.3365  -15.8296   26.3991 C   0  0  0  0  0  0  0  0  0  0  0  0
    3.9308  -16.0063   25.8136 C   0  0  0  0  0  0  0  0  0  0  0  0
    4.0066  -16.0302   24.2705 C   0  0  0  0  0  0  0  0  0  0  0  0
    3.3959  -17.3963   26.2146 C   0  0  0  0  0  0  0  0  0  0  0  0
    2.9963  -14.9145   26.2947 C   0  0  0  0  0  0  0  0  0  0  0  0
    2.0585  -15.1923   27.2160 N   0  0  0  0  0  0  0  0  0  0  0  0
    1.2881  -14.0616   27.3357 O   0  0  0  0  0  0  0  0  0  0  0  0
    1.7721  -13.1056   26.5143 C   0  0  0  0  0  0  0  0  0  0  0  0
    2.8880  -13.5627   25.8533 C   0  0  0  0  0  0  0  0  0  0  0  0
    3.7428  -12.8197   24.9353 C   0  0  0  0  0  0  0  0  0  0  0  0
    4.8905  -12.9987   24.9430 O   0  0  0  0  0  0  0  0  0  0  0  0
    2.8853  -11.9198   24.0429 N   0  0  0  0  0  0  0  0  0  0  0  0
    3.2447  -11.1166   22.9035 C   0  0  0  0  0  0  0  0  0  0  0  0
    4.5509  -10.3391   23.0408 C   0  0  0  0  0  0  0  0  0  0  0  0
    4.8448   -9.7535   21.8487 F   0  0  0  0  0  0  0  0  0  0  0  0
    4.3732   -9.3150   23.9197 F   0  0  0  0  0  0  0  0  0  0  0  0
  1  2  1  0
  2  3  1  0
  2  4  1  0
  2  5  1  0
  5  6  2  0
  6  7  1  0
  7  8  1  0
  8  9  2  0
  9 10  1  0
 10 11  2  0
 10 12  1  0
 12 13  1  0
 13 14  1  0
 14 15  1  0
 14 16  1  0
  9  5  1  0
M  END
>  <inchikey>  (1228) 
JOOUKSCQGIWKNK-UHFFFAOYSA-N

>  <tags>  (1228) 
fragmenstein_placed,CpKRS_FrAncestor_bulkdock_iter2

>  <ref_pdb>  (1228) 
x0646a

>  <energy_score>  (1228) 
-25.856965

>  <distance_score>  (1228) 
0.611082

>  <HIPPO Pose ID>  (1228) 
58790

>  <ref_mols>  (1228) 
x0504a

>  <smiles>  (1228) 
CC(C)(C)c1nocc1C(=O)NCC(F)F

>  <HIPPO Compound ID>  (1228) 
446376

>  <alias>  (1228) 
JOOUKSCQGIWKNK-UHFFFAOYSA-N-P48

>  <subsites>  (1228) 


>  <placement_batch>  (1228) 
CpKRS_FrAncestor_bulkdock_iter2

>  <name>  (1228) 
JOOUKSCQGIWKNK-UHFFFAOYSA-N-P48

$$$$
HJARGCBYQMOTNP-UHFFFAOYSA-N-P13
     RDKit          3D

 17 18  0  0  0  0  0  0  0  0999 V2000
    5.3307  -15.4157   26.4757 C   0  0  0  0  0  0  0  0  0  0  0  0
    3.8414  -15.7755   26.5212 C   0  0  0  0  0  0  0  0  0  0  0  0
    3.6097  -17.0449   25.6838 C   0  0  0  0  0  0  0  0  0  0  0  0
    3.4240  -16.0310   27.9895 C   0  0  0  0  0  0  0  0  0  0  0  0
    2.9652  -14.6720   25.9834 C   0  0  0  0  0  0  0  0  0  0  0  0
    1.6559  -14.7053   26.4113 O   0  0  0  0  0  0  0  0  0  0  0  0
    1.0958  -13.5846   25.9012 C   0  0  0  0  0  0  0  0  0  0  0  0
    1.8992  -12.8365   25.1867 N   0  0  0  0  0  0  0  0  0  0  0  0
    3.0981  -13.5485   25.1813 C   0  0  0  0  0  0  0  0  0  0  0  0
    4.2826  -13.0597   24.4620 C   0  0  0  0  0  0  0  0  0  0  0  0
    5.1757  -13.7575   24.2020 O   0  0  0  0  0  0  0  0  0  0  0  0
    4.0938  -11.5575   24.2251 N   0  0  0  0  0  0  0  0  0  0  0  0
    4.9956  -10.5798   23.7063 C   0  0  0  0  0  0  0  0  0  0  0  0
    4.5968   -9.1406   23.9795 C   0  0  0  0  0  0  0  0  0  0  0  0
    5.4970   -8.3804   23.0196 C   0  0  0  0  0  0  0  0  0  0  0  0
    5.5429   -9.2474   21.7647 C   0  0  0  0  0  0  0  0  0  0  0  0
    5.1039  -10.6457   22.1886 C   0  0  0  0  0  0  0  0  0  0  0  0
  1  2  1  0
  2  3  1  0
  2  4  1  0
  2  5  1  0
  5  6  1  0
  6  7  1  0
  7  8  2  0
  8  9  1  0
  9 10  1  0
 10 11  2  0
 10 12  1  0
 12 13  1  0
 13 14  1  0
 14 15  1  0
 15 16  1  0
 16 17  1  0
  9  5  2  0
 17 13  1  0
M  END
>  <inchikey>  (1229) 
HJARGCBYQMOTNP-UHFFFAOYSA-N

>  <tags>  (1229) 
fragmenstein_placed,CpKRS_FrAncestor_bulkdock_iter2

>  <ref_pdb>  (1229) 
x0646a

>  <energy_score>  (1229) 
-40.947164

>  <distance_score>  (1229) 
0.555238

>  <HIPPO Pose ID>  (1229) 
58795

>  <ref_mols>  (1229) 
x0421c

>  <smiles>  (1229) 
CC(C)(C)c1ocnc1C(=O)NC1CCCC1

>  <HIPPO Compound ID>  (1229) 
235107

>  <alias>  (1229) 
HJARGCBYQMOTNP-UHFFFAOYSA-N-P13

>  <subsites>  (1229) 


>  <placement_batch>  (1229) 
CpKRS_FrAncestor_bulkdock_iter2

>  <name>  (1229) 
HJARGCBYQMOTNP-UHFFFAOYSA-N-P13

$$$$
GIGYVXQLZKDTBN-UHFFFAOYSA-N-P45
     RDKit          3D

 18 19  0  0  0  0  0  0  0  0999 V2000
    4.1851  -15.9167   28.7558 C   0  0  0  0  0  0  0  0  0  0  0  0
    4.0148  -15.7522   27.2427 C   0  0  0  0  0  0  0  0  0  0  0  0
    3.3553  -17.0457   26.7586 C   0  0  0  0  0  0  0  0  0  0  0  0
    5.3907  -15.5836   26.6120 C   0  0  0  0  0  0  0  0  0  0  0  0
    3.1133  -14.5979   26.8973 C   0  0  0  0  0  0  0  0  0  0  0  0
    1.9216  -14.5811   27.5837 O   0  0  0  0  0  0  0  0  0  0  0  0
    1.2329  -13.5594   27.0348 C   0  0  0  0  0  0  0  0  0  0  0  0
    1.8228  -12.9310   26.0520 N   0  0  0  0  0  0  0  0  0  0  0  0
    3.0775  -13.5439   25.9847 C   0  0  0  0  0  0  0  0  0  0  0  0
    4.0987  -13.0623   25.0250 C   0  0  0  0  0  0  0  0  0  0  0  0
    5.2333  -13.2681   25.1700 O   0  0  0  0  0  0  0  0  0  0  0  0
    3.3583  -12.3378   23.8994 N   0  0  0  0  0  0  0  0  0  0  0  0
    3.8589  -11.6319   22.7631 C   0  0  0  0  0  0  0  0  0  0  0  0
    4.0528  -10.1413   22.9916 C   0  0  0  0  0  0  0  0  0  0  0  0
    4.7961   -9.4723   21.8374 C   0  0  0  0  0  0  0  0  0  0  0  0
    5.1697   -8.1264   22.4260 C   0  0  0  0  0  0  0  0  0  0  0  0
    5.5538   -8.4265   23.8684 C   0  0  0  0  0  0  0  0  0  0  0  0
    4.9257   -9.7816   24.1947 C   0  0  0  0  0  0  0  0  0  0  0  0
  1  2  1  0
  2  3  1  0
  2  4  1  0
  2  5  1  0
  5  6  1  0
  6  7  1  0
  7  8  2  0
  8  9  1  0
  9 10  1  0
 10 11  2  0
 10 12  1  0
 12 13  1  0
 13 14  1  0
 14 15  1  0
 15 16  1  0
 16 17  1  0
 17 18  1  0
  9  5  2  0
 18 14  1  0
M  END
>  <inchikey>  (1230) 
GIGYVXQLZKDTBN-UHFFFAOYSA-N

>  <tags>  (1230) 
fragmenstein_placed,CpKRS_FrAncestor_bulkdock_iter2

>  <ref_pdb>  (1230) 
x0646a

>  <energy_score>  (1230) 
-6.245612

>  <distance_score>  (1230) 
0.480077

>  <HIPPO Pose ID>  (1230) 
58797

>  <ref_mols>  (1230) 
x0502a

>  <smiles>  (1230) 
CC(C)(C)c1ocnc1C(=O)NCC1CCCC1

>  <HIPPO Compound ID>  (1230) 
364405

>  <alias>  (1230) 
GIGYVXQLZKDTBN-UHFFFAOYSA-N-P45

>  <subsites>  (1230) 


>  <placement_batch>  (1230) 
CpKRS_FrAncestor_bulkdock_iter2

>  <name>  (1230) 
GIGYVXQLZKDTBN-UHFFFAOYSA-N-P45

$$$$
DUUFOOXZTWYAOP-UHFFFAOYSA-N-P33
     RDKit          3D

 17 18  0  0  0  0  0  0  0  0999 V2000
    6.3815   -8.5699   24.6944 C   0  0  0  0  0  0  0  0  0  0  0  0
    5.4207   -9.1241   24.2370 C   0  0  0  0  0  0  0  0  0  0  0  0
    4.2341   -9.7029   23.5561 C   0  0  0  0  0  0  0  0  0  0  0  0
    4.5604   -9.7253   22.0543 C   0  0  0  0  0  0  0  0  0  0  0  0
    3.0754   -8.7512   23.8500 C   0  0  0  0  0  0  0  0  0  0  0  0
    3.8780  -11.0915   24.1192 C   0  0  0  0  0  0  0  0  0  0  0  0
    4.9931  -12.1236   23.9324 C   0  0  0  0  0  0  0  0  0  0  0  0
    4.5015  -13.5582   24.0692 C   0  0  0  0  0  0  0  0  0  0  0  0
    3.3923  -13.6000   25.0082 N   0  0  0  0  0  0  0  0  0  0  0  0
    3.5163  -14.4000   26.1289 C   0  0  0  0  0  0  0  0  0  0  0  0
    2.4714  -14.5773   27.0289 C   0  0  0  0  0  0  0  0  0  0  0  0
    2.6485  -15.3451   28.1746 C   0  0  0  0  0  0  0  0  0  0  0  0
    3.8725  -15.9383   28.3716 C   0  0  0  0  0  0  0  0  0  0  0  0
    4.8880  -15.7784   27.5144 N   0  0  0  0  0  0  0  0  0  0  0  0
    4.7001  -15.0010   26.4008 N   0  0  0  0  0  0  0  0  0  0  0  0
    2.1957  -12.8482   24.6653 C   0  0  0  0  0  0  0  0  0  0  0  0
    2.5369  -11.7122   23.6840 C   0  0  0  0  0  0  0  0  0  0  0  0
  1  2  3  0
  2  3  1  0
  3  4  1  0
  3  5  1  0
  3  6  1  0
  6  7  1  0
  7  8  1  0
  8  9  1  0
  9 10  1  0
 10 11  2  0
 11 12  1  0
 12 13  2  0
 13 14  1  0
 14 15  2  0
  9 16  1  0
 16 17  1  0
 17  6  1  0
 15 10  1  0
M  END
>  <inchikey>  (1231) 
DUUFOOXZTWYAOP-UHFFFAOYSA-N

>  <tags>  (1231) 
fragmenstein_placed,CpKRS_FrAncestor_bulkdock_iter2

>  <ref_pdb>  (1231) 
x0646a

>  <energy_score>  (1231) 
-21.053468

>  <distance_score>  (1231) 
0.731748

>  <HIPPO Pose ID>  (1231) 
58800

>  <ref_mols>  (1231) 
x0489a

>  <smiles>  (1231) 
C#CC(C)(C)C1CCN(c2cccnn2)CC1

>  <HIPPO Compound ID>  (1231) 
230789

>  <alias>  (1231) 
DUUFOOXZTWYAOP-UHFFFAOYSA-N-P33

>  <subsites>  (1231) 


>  <placement_batch>  (1231) 
CpKRS_FrAncestor_bulkdock_iter2

>  <name>  (1231) 
DUUFOOXZTWYAOP-UHFFFAOYSA-N-P33

$$$$
AVSDFSFMWCUUDM-UHFFFAOYSA-N-P15
     RDKit          3D

 19 20  0  0  0  0  0  0  0  0999 V2000
   -1.7748  -21.3364   13.6370 C   0  0  0  0  0  0  0  0  0  0  0  0
   -1.5721  -22.7884   13.1765 C   0  0  0  0  0  0  0  0  0  0  0  0
   -1.9134  -23.6582   14.4210 C   0  0  0  0  0  0  0  0  0  0  0  0
   -2.5821  -23.2183   12.0961 C   0  0  0  0  0  0  0  0  0  0  0  0
   -0.1632  -22.9983   12.6096 C   0  0  0  0  0  0  0  0  0  0  0  0
    0.3461  -22.3565   11.4664 C   0  0  0  0  0  0  0  0  0  0  0  0
    1.5263  -22.6556   10.8442 N   0  0  0  0  0  0  0  0  0  0  0  0
    2.2490  -23.6461   11.3978 C   0  0  0  0  0  0  0  0  0  0  0  0
    1.8821  -24.2644   12.5726 C   0  0  0  0  0  0  0  0  0  0  0  0
    2.7097  -25.3116   13.1624 C   0  0  0  0  0  0  0  0  0  0  0  0
    3.0892  -26.1712   12.4798 O   0  0  0  0  0  0  0  0  0  0  0  0
    2.8484  -25.1090   14.6737 N   0  0  0  0  0  0  0  0  0  0  0  0
    3.3920  -25.9524   15.6653 C   0  0  0  0  0  0  0  0  0  0  0  0
    3.4101  -25.3536   17.0139 C   0  0  0  0  0  0  0  0  0  0  0  0
    2.7957  -25.8891   18.1857 C   0  0  0  0  0  0  0  0  0  0  0  0
    3.2641  -25.1516   19.2443 C   0  0  0  0  0  0  0  0  0  0  0  0
    4.0856  -24.1663   18.8028 O   0  0  0  0  0  0  0  0  0  0  0  0
    4.1350  -24.2642   17.4490 C   0  0  0  0  0  0  0  0  0  0  0  0
    0.6677  -23.9555   13.1685 C   0  0  0  0  0  0  0  0  0  0  0  0
  1  2  1  0
  2  3  1  0
  2  4  1  0
  2  5  1  0
  5  6  2  0
  6  7  1  0
  7  8  2  0
  8  9  1  0
  9 10  1  0
 10 11  2  0
 10 12  1  0
 12 13  1  0
 13 14  1  0
 14 15  1  0
 15 16  2  0
 16 17  1  0
 17 18  1  0
  9 19  2  0
 19  5  1  0
 18 14  2  0
M  END
>  <inchikey>  (1232) 
AVSDFSFMWCUUDM-UHFFFAOYSA-N

>  <tags>  (1232) 
fragmenstein_placed,CpKRS_FrAncestor_bulkdock_iter2

>  <ref_pdb>  (1232) 
x0646a

>  <energy_score>  (1232) 
-4.854541

>  <distance_score>  (1232) 
0.801594

>  <HIPPO Pose ID>  (1232) 
58802

>  <ref_mols>  (1232) 
x0426b

>  <smiles>  (1232) 
CC(C)(C)c1cncc(C(=O)NCc2ccoc2)c1

>  <HIPPO Compound ID>  (1232) 
439828

>  <alias>  (1232) 
AVSDFSFMWCUUDM-UHFFFAOYSA-N-P15

>  <subsites>  (1232) 


>  <placement_batch>  (1232) 
CpKRS_FrAncestor_bulkdock_iter2

>  <name>  (1232) 
AVSDFSFMWCUUDM-UHFFFAOYSA-N-P15

$$$$
RVGOSNUIYJCYLP-UHFFFAOYSA-N-P7
     RDKit          3D

 15 15  0  0  0  0  0  0  0  0999 V2000
    0.7358   -9.2487   23.6831 C   0  0  0  0  0  0  0  0  0  0  0  0
    2.1307   -8.9606   24.0352 C   0  0  0  0  0  0  0  0  0  0  0  0
    3.2799   -8.7707   24.3391 C   0  0  0  0  0  0  0  0  0  0  0  0
    4.7122   -8.6707   24.7229 C   0  0  0  0  0  0  0  0  0  0  0  0
    5.4194  -10.0446   24.5320 C   0  0  2  0  0  0  0  0  0  0  0  0
    5.4967  -10.2734   23.0053 C   0  0  0  0  0  0  0  0  0  0  0  0
    4.6653  -11.0766   25.2391 N   0  0  0  0  0  0  0  0  0  0  0  0
    4.6618  -11.0359   26.7050 C   0  0  0  0  0  0  0  0  0  0  0  0
    3.3679  -11.7054   27.2153 C   0  0  0  0  0  0  0  0  0  0  0  0
    3.1067  -13.0688   26.6978 N   0  0  0  0  0  0  0  0  0  0  0  0
    1.6744  -13.3952   26.9673 C   0  0  0  0  0  0  0  0  0  0  0  0
    1.1569  -14.6167   26.3042 C   0  0  0  0  0  0  0  0  0  0  0  0
    0.7108  -15.5127   25.7109 N   0  0  0  0  0  0  0  0  0  0  0  0
    3.3912  -13.1521   25.2507 C   0  0  0  0  0  0  0  0  0  0  0  0
    4.6972  -12.4651   24.7978 C   0  0  0  0  0  0  0  0  0  0  0  0
  1  2  1  0
  2  3  3  0
  3  4  1  0
  4  5  1  0
  5  6  1  6
  5  7  1  0
  7  8  1  0
  8  9  1  0
  9 10  1  0
 10 11  1  0
 11 12  1  0
 12 13  3  0
 10 14  1  0
 14 15  1  0
 15  7  1  0
M  END
>  <inchikey>  (1233) 
RVGOSNUIYJCYLP-UHFFFAOYSA-N

>  <tags>  (1233) 
fragmenstein_placed,CpKRS_FrAncestor_bulkdock_iter2

>  <ref_pdb>  (1233) 
x0646a

>  <energy_score>  (1233) 
-23.167694

>  <distance_score>  (1233) 
0.792423

>  <HIPPO Pose ID>  (1233) 
58899

>  <ref_mols>  (1233) 
x0414b

>  <smiles>  (1233) 
CC#CCC(C)N1CCN(CC#N)CC1

>  <HIPPO Compound ID>  (1233) 
446389

>  <alias>  (1233) 
RVGOSNUIYJCYLP-UHFFFAOYSA-N-P7

>  <subsites>  (1233) 


>  <placement_batch>  (1233) 
CpKRS_FrAncestor_bulkdock_iter2

>  <name>  (1233) 
RVGOSNUIYJCYLP-UHFFFAOYSA-N-P7

$$$$
DBCKUPBXFODPFD-UHFFFAOYSA-N-P38
     RDKit          3D

 16 16  0  0  0  0  0  0  0  0999 V2000
    2.0690   -8.9294   23.3861 C   0  0  0  0  0  0  0  0  0  0  0  0
    3.1970   -9.2362   23.1073 C   0  0  0  0  0  0  0  0  0  0  0  0
    4.5925   -9.6828   22.8369 C   0  0  0  0  0  0  0  0  0  0  0  0
    5.1629   -8.9528   21.6166 C   0  0  0  0  0  0  0  0  0  0  0  0
    5.4523   -9.3254   24.0582 C   0  0  0  0  0  0  0  0  0  0  0  0
    4.6108  -11.2075   22.5506 C   0  0  0  0  0  0  0  0  0  0  0  0
    3.9118  -11.9665   23.5588 N   0  0  0  0  0  0  0  0  0  0  0  0
    4.4337  -12.9909   24.5774 C   0  0  0  0  0  0  0  0  0  0  0  0
    5.5209  -13.3293   24.8172 O   0  0  0  0  0  0  0  0  0  0  0  0
    3.3495  -13.5579   25.4575 C   0  0  0  0  0  0  0  0  0  0  0  0
    2.0673  -13.0239   25.5820 C   0  0  0  0  0  0  0  0  0  0  0  0
    1.1324  -13.4459   26.4746 N   0  0  0  0  0  0  0  0  0  0  0  0
    1.5190  -14.4275   27.3153 C   0  0  0  0  0  0  0  0  0  0  0  0
    2.7712  -15.0129   27.2900 C   0  0  0  0  0  0  0  0  0  0  0  0
    3.2414  -16.2651   28.6046 Br  0  0  0  0  0  0  0  0  0  0  0  0
    3.6897  -14.5922   26.3384 C   0  0  0  0  0  0  0  0  0  0  0  0
  1  2  3  0
  2  3  1  0
  3  4  1  0
  3  5  1  0
  3  6  1  0
  6  7  1  0
  7  8  1  0
  8  9  2  0
  8 10  1  0
 10 11  2  0
 11 12  1  0
 12 13  2  0
 13 14  1  0
 14 15  1  0
 14 16  2  0
 16 10  1  0
M  END
>  <inchikey>  (1234) 
DBCKUPBXFODPFD-UHFFFAOYSA-N

>  <tags>  (1234) 
fragmenstein_placed,CpKRS_FrAncestor_bulkdock_iter2

>  <ref_pdb>  (1234) 
x0646a

>  <energy_score>  (1234) 
-9.156919

>  <distance_score>  (1234) 
0.359558

>  <HIPPO Pose ID>  (1234) 
58911

>  <ref_mols>  (1234) 
x0555a

>  <smiles>  (1234) 
C#CC(C)(C)CNC(=O)c1cncc(Br)c1

>  <HIPPO Compound ID>  (1234) 
124969

>  <alias>  (1234) 
DBCKUPBXFODPFD-UHFFFAOYSA-N-P38

>  <subsites>  (1234) 


>  <placement_batch>  (1234) 
CpKRS_FrAncestor_bulkdock_iter2

>  <name>  (1234) 
DBCKUPBXFODPFD-UHFFFAOYSA-N-P38

$$$$
RZDKHUDZZBSEJZ-UHFFFAOYSA-N-P38
     RDKit          3D

 17 17  0  0  0  0  0  0  0  0999 V2000
    5.3900   -7.5063   25.1078 C   0  0  0  0  0  0  0  0  0  0  0  0
    5.0444   -8.2717   24.2499 C   0  0  0  0  0  0  0  0  0  0  0  0
    4.6669   -9.2165   23.1753 C   0  0  0  0  0  0  0  0  0  0  0  0
    5.2236   -8.7096   21.8379 C   0  0  0  0  0  0  0  0  0  0  0  0
    3.1389   -9.3150   23.1102 C   0  0  0  0  0  0  0  0  0  0  0  0
    5.3113  -10.5752   23.4555 C   0  0  0  0  0  0  0  0  0  0  0  0
    4.5722  -11.4502   24.3221 N   0  0  0  0  0  0  0  0  0  0  0  0
    4.4851  -12.9687   24.3529 C   0  0  0  0  0  0  0  0  0  0  0  0
    5.0525  -13.7642   23.7355 O   0  0  0  0  0  0  0  0  0  0  0  0
    3.5088  -13.4525   25.3799 C   0  0  0  0  0  0  0  0  0  0  0  0
    2.2231  -12.9189   25.3735 C   0  0  0  0  0  0  0  0  0  0  0  0
    1.2420  -13.2660   26.2393 N   0  0  0  0  0  0  0  0  0  0  0  0
    1.5485  -14.2431   27.1184 C   0  0  0  0  0  0  0  0  0  0  0  0
    2.7826  -14.8828   27.1967 C   0  0  0  0  0  0  0  0  0  0  0  0
    2.9806  -15.9916   28.1893 C   0  0  0  0  0  0  0  0  0  0  0  0
    3.8022  -14.4683   26.3133 C   0  0  0  0  0  0  0  0  0  0  0  0
    5.1437  -15.1432   26.3819 C   0  0  0  0  0  0  0  0  0  0  0  0
  1  2  3  0
  2  3  1  0
  3  4  1  0
  3  5  1  0
  3  6  1  0
  6  7  1  0
  7  8  1  0
  8  9  2  0
  8 10  1  0
 10 11  2  0
 11 12  1  0
 12 13  2  0
 13 14  1  0
 14 15  1  0
 14 16  2  0
 16 17  1  0
 16 10  1  0
M  END
>  <inchikey>  (1235) 
RZDKHUDZZBSEJZ-UHFFFAOYSA-N

>  <tags>  (1235) 
fragmenstein_placed,CpKRS_FrAncestor_bulkdock_iter2

>  <ref_pdb>  (1235) 
x0646a

>  <energy_score>  (1235) 
-15.76063

>  <distance_score>  (1235) 
0.477716

>  <HIPPO Pose ID>  (1235) 
58912

>  <ref_mols>  (1235) 
x0555a

>  <smiles>  (1235) 
C#CC(C)(C)CNC(=O)c1cncc(C)c1C

>  <HIPPO Compound ID>  (1235) 
446395

>  <alias>  (1235) 
RZDKHUDZZBSEJZ-UHFFFAOYSA-N-P38

>  <subsites>  (1235) 


>  <placement_batch>  (1235) 
CpKRS_FrAncestor_bulkdock_iter2

>  <name>  (1235) 
RZDKHUDZZBSEJZ-UHFFFAOYSA-N-P38

$$$$
PWSFFKOJYYHDND-UHFFFAOYSA-N-P38
     RDKit          3D

 17 17  0  0  0  0  0  0  0  0999 V2000
    5.3964   -8.1652   21.4065 C   0  0  0  0  0  0  0  0  0  0  0  0
    4.8795   -8.9165   22.1743 C   0  0  0  0  0  0  0  0  0  0  0  0
    4.4035   -9.6843   23.3199 C   0  0  0  0  0  0  0  0  0  0  0  0
    3.0111   -9.1916   23.7399 C   0  0  0  0  0  0  0  0  0  0  0  0
    5.4012   -9.3814   24.4420 C   0  0  0  0  0  0  0  0  0  0  0  0
    4.3648  -11.1736   22.9548 C   0  0  0  0  0  0  0  0  0  0  0  0
    3.7908  -11.9903   23.9914 N   0  0  0  0  0  0  0  0  0  0  0  0
    4.3216  -13.2593   24.6681 C   0  0  0  0  0  0  0  0  0  0  0  0
    5.3393  -13.8036   24.5512 O   0  0  0  0  0  0  0  0  0  0  0  0
    3.3456  -13.8485   25.6822 C   0  0  0  0  0  0  0  0  0  0  0  0
    1.9849  -13.5109   25.6668 C   0  0  0  0  0  0  0  0  0  0  0  0
    1.0646  -13.8722   26.5964 N   0  0  0  0  0  0  0  0  0  0  0  0
    1.5169  -14.6805   27.5699 C   0  0  0  0  0  0  0  0  0  0  0  0
    2.8110  -15.1712   27.6369 C   0  0  0  0  0  0  0  0  0  0  0  0
    3.1732  -16.2524   28.9275 Cl  0  0  0  0  0  0  0  0  0  0  0  0
    3.7627  -14.7575   26.6885 C   0  0  0  0  0  0  0  0  0  0  0  0
    5.1405  -15.3636   26.7431 C   0  0  0  0  0  0  0  0  0  0  0  0
  1  2  3  0
  2  3  1  0
  3  4  1  0
  3  5  1  0
  3  6  1  0
  6  7  1  0
  7  8  1  0
  8  9  2  0
  8 10  1  0
 10 11  2  0
 11 12  1  0
 12 13  2  0
 13 14  1  0
 14 15  1  0
 14 16  2  0
 16 17  1  0
 16 10  1  0
M  END
>  <inchikey>  (1236) 
PWSFFKOJYYHDND-UHFFFAOYSA-N

>  <tags>  (1236) 
fragmenstein_placed,CpKRS_FrAncestor_bulkdock_iter2

>  <ref_pdb>  (1236) 
x0646a

>  <energy_score>  (1236) 
-16.257169

>  <distance_score>  (1236) 
0.559097

>  <HIPPO Pose ID>  (1236) 
58914

>  <ref_mols>  (1236) 
x0555a

>  <smiles>  (1236) 
C#CC(C)(C)CNC(=O)c1cncc(Cl)c1C

>  <HIPPO Compound ID>  (1236) 
446397

>  <alias>  (1236) 
PWSFFKOJYYHDND-UHFFFAOYSA-N-P38

>  <subsites>  (1236) 


>  <placement_batch>  (1236) 
CpKRS_FrAncestor_bulkdock_iter2

>  <name>  (1236) 
PWSFFKOJYYHDND-UHFFFAOYSA-N-P38

$$$$
FKWYPXOGMKOBFO-UHFFFAOYSA-N-P38
     RDKit          3D

 16 16  0  0  0  0  0  0  0  0999 V2000
    2.0490   -8.9543   23.4198 C   0  0  0  0  0  0  0  0  0  0  0  0
    3.1750   -9.2730   23.1463 C   0  0  0  0  0  0  0  0  0  0  0  0
    4.5676   -9.7274   22.8743 C   0  0  0  0  0  0  0  0  0  0  0  0
    5.1322   -9.0106   21.6411 C   0  0  0  0  0  0  0  0  0  0  0  0
    5.4366   -9.3560   24.0838 C   0  0  0  0  0  0  0  0  0  0  0  0
    4.5797  -11.2563   22.6065 C   0  0  0  0  0  0  0  0  0  0  0  0
    3.8960  -12.0223   23.6234 N   0  0  0  0  0  0  0  0  0  0  0  0
    4.4331  -13.0652   24.6200 C   0  0  0  0  0  0  0  0  0  0  0  0
    5.5235  -13.4157   24.8309 O   0  0  0  0  0  0  0  0  0  0  0  0
    3.3723  -13.6443   25.5300 C   0  0  0  0  0  0  0  0  0  0  0  0
    2.0616  -13.1817   25.6427 C   0  0  0  0  0  0  0  0  0  0  0  0
    1.1533  -13.6274   26.5541 N   0  0  0  0  0  0  0  0  0  0  0  0
    1.5887  -14.5802   27.4065 C   0  0  0  0  0  0  0  0  0  0  0  0
    2.8615  -15.1194   27.3789 C   0  0  0  0  0  0  0  0  0  0  0  0
    3.3260  -16.2646   28.5647 Cl  0  0  0  0  0  0  0  0  0  0  0  0
    3.7571  -14.6581   26.4229 C   0  0  0  0  0  0  0  0  0  0  0  0
  1  2  3  0
  2  3  1  0
  3  4  1  0
  3  5  1  0
  3  6  1  0
  6  7  1  0
  7  8  1  0
  8  9  2  0
  8 10  1  0
 10 11  2  0
 11 12  1  0
 12 13  2  0
 13 14  1  0
 14 15  1  0
 14 16  2  0
 16 10  1  0
M  END
>  <inchikey>  (1237) 
FKWYPXOGMKOBFO-UHFFFAOYSA-N

>  <tags>  (1237) 
fragmenstein_placed,CpKRS_FrAncestor_bulkdock_iter2

>  <ref_pdb>  (1237) 
x0646a

>  <energy_score>  (1237) 
-9.371379

>  <distance_score>  (1237) 
0.370413

>  <HIPPO Pose ID>  (1237) 
58915

>  <ref_mols>  (1237) 
x0555a

>  <smiles>  (1237) 
C#CC(C)(C)CNC(=O)c1cncc(Cl)c1

>  <HIPPO Compound ID>  (1237) 
124974

>  <alias>  (1237) 
FKWYPXOGMKOBFO-UHFFFAOYSA-N-P38

>  <subsites>  (1237) 


>  <placement_batch>  (1237) 
CpKRS_FrAncestor_bulkdock_iter2

>  <name>  (1237) 
FKWYPXOGMKOBFO-UHFFFAOYSA-N-P38

$$$$
OFQHBIICHRJKFI-UHFFFAOYSA-N-P38
     RDKit          3D

 17 17  0  0  0  0  0  0  0  0999 V2000
    5.4526   -7.9377   25.1739 C   0  0  0  0  0  0  0  0  0  0  0  0
    5.0881   -8.6309   24.2645 C   0  0  0  0  0  0  0  0  0  0  0  0
    4.6122   -9.4383   23.1196 C   0  0  0  0  0  0  0  0  0  0  0  0
    5.2765   -8.9149   21.8328 C   0  0  0  0  0  0  0  0  0  0  0  0
    3.0957   -9.2650   23.0265 C   0  0  0  0  0  0  0  0  0  0  0  0
    5.0148  -10.9160   23.2876 C   0  0  0  0  0  0  0  0  0  0  0  0
    4.1821  -11.7507   24.1207 N   0  0  0  0  0  0  0  0  0  0  0  0
    4.4752  -13.1059   24.7875 C   0  0  0  0  0  0  0  0  0  0  0  0
    5.4068  -13.7997   24.7079 O   0  0  0  0  0  0  0  0  0  0  0  0
    3.3402  -13.6111   25.6924 C   0  0  0  0  0  0  0  0  0  0  0  0
    3.7866  -14.5292   26.6011 N   0  0  0  0  0  0  0  0  0  0  0  0
    2.9319  -15.0518   27.5016 C   0  0  0  0  0  0  0  0  0  0  0  0
    3.4794  -16.0671   28.4512 C   0  0  0  0  0  0  0  0  0  0  0  0
    1.6033  -14.6771   27.5625 C   0  0  0  0  0  0  0  0  0  0  0  0
    1.1338  -13.7591   26.6339 C   0  0  0  0  0  0  0  0  0  0  0  0
    2.0016  -13.2192   25.6764 C   0  0  0  0  0  0  0  0  0  0  0  0
    1.1834  -12.0269   24.4609 Br  0  0  0  0  0  0  0  0  0  0  0  0
  1  2  3  0
  2  3  1  0
  3  4  1  0
  3  5  1  0
  3  6  1  0
  6  7  1  0
  7  8  1  0
  8  9  2  0
  8 10  1  0
 10 11  2  0
 11 12  1  0
 12 13  1  0
 12 14  2  0
 14 15  1  0
 15 16  2  0
 16 17  1  0
 16 10  1  0
M  END
>  <inchikey>  (1238) 
OFQHBIICHRJKFI-UHFFFAOYSA-N

>  <tags>  (1238) 
fragmenstein_placed,CpKRS_FrAncestor_bulkdock_iter2

>  <ref_pdb>  (1238) 
x0646a

>  <energy_score>  (1238) 
-3.817877

>  <distance_score>  (1238) 
0.315558

>  <HIPPO Pose ID>  (1238) 
58916

>  <ref_mols>  (1238) 
x0555a

>  <smiles>  (1238) 
C#CC(C)(C)CNC(=O)c1nc(C)ccc1Br

>  <HIPPO Compound ID>  (1238) 
446398

>  <alias>  (1238) 
OFQHBIICHRJKFI-UHFFFAOYSA-N-P38

>  <subsites>  (1238) 


>  <placement_batch>  (1238) 
CpKRS_FrAncestor_bulkdock_iter2

>  <name>  (1238) 
OFQHBIICHRJKFI-UHFFFAOYSA-N-P38

$$$$
GOCREPQDSMURKT-UHFFFAOYSA-N-P38
     RDKit          3D

 17 17  0  0  0  0  0  0  0  0999 V2000
    5.4506   -8.1337   21.4040 C   0  0  0  0  0  0  0  0  0  0  0  0
    4.9732   -8.9881   22.0852 C   0  0  0  0  0  0  0  0  0  0  0  0
    4.4741   -9.8644   23.1397 C   0  0  0  0  0  0  0  0  0  0  0  0
    3.0838   -9.3752   23.5784 C   0  0  0  0  0  0  0  0  0  0  0  0
    5.4273   -9.6740   24.3186 C   0  0  0  0  0  0  0  0  0  0  0  0
    4.4434  -11.3278   22.6427 C   0  0  0  0  0  0  0  0  0  0  0  0
    3.7768  -12.2085   23.5670 N   0  0  0  0  0  0  0  0  0  0  0  0
    4.3492  -13.1384   24.6526 C   0  0  0  0  0  0  0  0  0  0  0  0
    5.4541  -13.3973   24.9194 O   0  0  0  0  0  0  0  0  0  0  0  0
    3.2588  -13.7250   25.5795 C   0  0  0  0  0  0  0  0  0  0  0  0
    3.7673  -14.6247   26.4729 N   0  0  0  0  0  0  0  0  0  0  0  0
    2.9703  -15.1319   27.4365 C   0  0  0  0  0  0  0  0  0  0  0  0
    3.5815  -16.1037   28.3925 C   0  0  0  0  0  0  0  0  0  0  0  0
    1.6400  -14.7779   27.5652 C   0  0  0  0  0  0  0  0  0  0  0  0
    1.1077  -13.8798   26.6541 C   0  0  0  0  0  0  0  0  0  0  0  0
    1.9158  -13.3376   25.6489 C   0  0  0  0  0  0  0  0  0  0  0  0
    1.1120  -12.1959   24.6363 Cl  0  0  0  0  0  0  0  0  0  0  0  0
  1  2  3  0
  2  3  1  0
  3  4  1  0
  3  5  1  0
  3  6  1  0
  6  7  1  0
  7  8  1  0
  8  9  2  0
  8 10  1  0
 10 11  2  0
 11 12  1  0
 12 13  1  0
 12 14  2  0
 14 15  1  0
 15 16  2  0
 16 17  1  0
 16 10  1  0
M  END
>  <inchikey>  (1239) 
GOCREPQDSMURKT-UHFFFAOYSA-N

>  <tags>  (1239) 
fragmenstein_placed,CpKRS_FrAncestor_bulkdock_iter2

>  <ref_pdb>  (1239) 
x0646a

>  <energy_score>  (1239) 
-2.013953

>  <distance_score>  (1239) 
0.525147

>  <HIPPO Pose ID>  (1239) 
58917

>  <ref_mols>  (1239) 
x0555a

>  <smiles>  (1239) 
C#CC(C)(C)CNC(=O)c1nc(C)ccc1Cl

>  <HIPPO Compound ID>  (1239) 
224111

>  <alias>  (1239) 
GOCREPQDSMURKT-UHFFFAOYSA-N-P38

>  <subsites>  (1239) 


>  <placement_batch>  (1239) 
CpKRS_FrAncestor_bulkdock_iter2

>  <name>  (1239) 
GOCREPQDSMURKT-UHFFFAOYSA-N-P38

$$$$
PSCVLRFYCGIGGU-UHFFFAOYSA-N-P39
     RDKit          3D

 18 18  0  0  0  0  0  0  0  0999 V2000
   -2.1693  -20.3414   22.5744 C   0  0  0  0  0  0  0  0  0  0  0  0
   -1.2346  -19.2436   22.8139 C   0  0  0  0  0  0  0  0  0  0  0  0
   -0.4421  -18.3576   22.9820 C   0  0  0  0  0  0  0  0  0  0  0  0
    0.5808  -17.2114   23.0748 C   0  0  0  0  0  0  0  0  0  0  0  0
    1.3383  -16.2890   22.9480 C   0  0  0  0  0  0  0  0  0  0  0  0
    2.1431  -15.1712   22.5085 C   0  0  0  0  0  0  0  0  0  0  0  0
    2.1260  -14.9512   21.3639 O   0  0  0  0  0  0  0  0  0  0  0  0
    2.8302  -14.4121   23.6627 N   0  0  0  0  0  0  0  0  0  0  0  0
    3.5412  -13.2046   23.6618 C   0  0  0  0  0  0  0  0  0  0  0  0
    3.9565  -12.6373   22.4677 C   0  0  0  0  0  0  0  0  0  0  0  0
    4.5642  -11.3757   22.4310 C   0  0  0  0  0  0  0  0  0  0  0  0
    4.7174  -10.5882   23.5767 C   0  0  0  0  0  0  0  0  0  0  0  0
    5.1267   -9.2454   23.5068 N   0  0  0  0  0  0  0  0  0  0  0  0
    5.8054   -8.7099   24.6871 C   0  0  0  0  0  0  0  0  0  0  0  0
    5.6280   -8.7256   22.2339 C   0  0  0  0  0  0  0  0  0  0  0  0
    4.3588  -11.2071   24.7891 C   0  0  0  0  0  0  0  0  0  0  0  0
    3.8110  -12.5041   24.8350 C   0  0  0  0  0  0  0  0  0  0  0  0
    3.4040  -13.1679   26.3721 Cl  0  0  0  0  0  0  0  0  0  0  0  0
  1  2  1  0
  2  3  3  0
  3  4  1  0
  4  5  3  0
  5  6  1  0
  6  7  2  0
  6  8  1  0
  8  9  1  0
  9 10  2  0
 10 11  1  0
 11 12  2  0
 12 13  1  0
 13 14  1  0
 13 15  1  0
 12 16  1  0
 16 17  2  0
 17 18  1  0
 17  9  1  0
M  END
>  <inchikey>  (1240) 
PSCVLRFYCGIGGU-UHFFFAOYSA-N

>  <tags>  (1240) 
fragmenstein_placed,CpKRS_FrAncestor_bulkdock_iter2

>  <ref_pdb>  (1240) 
x0646a

>  <energy_score>  (1240) 
-21.107621

>  <distance_score>  (1240) 
0.745139

>  <HIPPO Pose ID>  (1240) 
58987

>  <ref_mols>  (1240) 
x0602a

>  <smiles>  (1240) 
CC#CC#CC(=O)Nc1ccc(N(C)C)cc1Cl

>  <HIPPO Compound ID>  (1240) 
353403

>  <alias>  (1240) 
PSCVLRFYCGIGGU-UHFFFAOYSA-N-P39

>  <subsites>  (1240) 


>  <placement_batch>  (1240) 
CpKRS_FrAncestor_bulkdock_iter2

>  <name>  (1240) 
PSCVLRFYCGIGGU-UHFFFAOYSA-N-P39

$$$$
YCXLDTJVAPZVRY-UHFFFAOYSA-N-P60
     RDKit          3D

 19 20  0  0  0  0  0  0  0  0999 V2000
   -4.2130  -35.0435   21.9514 C   0  0  0  0  0  0  0  0  0  0  0  0
   -3.5342  -34.2812   22.9985 C   0  0  0  0  0  0  0  0  0  0  0  0
   -2.9766  -33.6458   23.8531 C   0  0  0  0  0  0  0  0  0  0  0  0
   -2.2901  -32.8647   24.9082 C   0  0  2  0  0  0  0  0  0  0  0  0
   -3.2710  -32.7174   26.0840 C   0  0  0  0  0  0  0  0  0  0  0  0
   -1.8341  -31.5617   24.3840 N   0  0  0  0  0  0  0  0  0  0  0  0
   -0.8324  -31.6977   23.3078 C   0  0  0  0  0  0  0  0  0  0  0  0
   -0.4532  -30.3358   22.6594 C   0  0  0  0  0  0  0  0  0  0  0  0
   -0.5288  -29.1461   23.5371 N   0  0  0  0  0  0  0  0  0  0  0  0
   -1.8110  -28.4441   23.3560 C   0  0  0  0  0  0  0  0  0  0  0  0
   -1.8675  -27.1091   24.0747 C   0  0  0  0  0  0  0  0  0  0  0  0
   -1.1126  -26.0260   23.6078 C   0  0  0  0  0  0  0  0  0  0  0  0
   -1.1845  -24.7913   24.2485 C   0  0  0  0  0  0  0  0  0  0  0  0
   -1.9872  -24.6300   25.3771 C   0  0  0  0  0  0  0  0  0  0  0  0
   -2.7466  -25.6977   25.8636 C   0  0  0  0  0  0  0  0  0  0  0  0
   -3.5962  -25.5223   27.0855 C   0  0  0  0  0  0  0  0  0  0  0  0
   -2.6765  -26.9357   25.2101 C   0  0  0  0  0  0  0  0  0  0  0  0
   -0.3242  -29.5738   24.9278 C   0  0  0  0  0  0  0  0  0  0  0  0
   -1.2928  -30.6748   25.4366 C   0  0  0  0  0  0  0  0  0  0  0  0
  1  2  1  0
  2  3  3  0
  3  4  1  0
  4  5  1  1
  4  6  1  0
  6  7  1  0
  7  8  1  0
  8  9  1  0
  9 10  1  0
 10 11  1  0
 11 12  2  0
 12 13  1  0
 13 14  2  0
 14 15  1  0
 15 16  1  0
 15 17  2  0
  9 18  1  0
 18 19  1  0
 19  6  1  0
 17 11  1  0
M  END
>  <inchikey>  (1241) 
YCXLDTJVAPZVRY-UHFFFAOYSA-N

>  <tags>  (1241) 
fragmenstein_placed,CpKRS_FrAncestor_bulkdock_iter2

>  <ref_pdb>  (1241) 
x0646a

>  <energy_score>  (1241) 
-34.467481

>  <distance_score>  (1241) 
0.388396

>  <HIPPO Pose ID>  (1241) 
59112

>  <ref_mols>  (1241) 
x0675b

>  <smiles>  (1241) 
CC#CC(C)N1CCN(Cc2cccc(C)c2)CC1

>  <HIPPO Compound ID>  (1241) 
369125

>  <alias>  (1241) 
YCXLDTJVAPZVRY-UHFFFAOYSA-N-P60

>  <subsites>  (1241) 


>  <placement_batch>  (1241) 
CpKRS_FrAncestor_bulkdock_iter2

>  <name>  (1241) 
YCXLDTJVAPZVRY-UHFFFAOYSA-N-P60

$$$$
BULKJSKFOSAFOK-UHFFFAOYSA-N-P60
     RDKit          3D

 19 20  0  0  0  0  0  0  0  0999 V2000
   -4.2297  -34.5000   20.7378 C   0  0  0  0  0  0  0  0  0  0  0  0
   -4.5695  -34.9283   22.1554 C   0  0  0  0  0  0  0  0  0  0  0  0
   -3.7564  -34.2021   23.1388 C   0  0  0  0  0  0  0  0  0  0  0  0
   -3.0891  -33.5970   23.9343 C   0  0  0  0  0  0  0  0  0  0  0  0
   -2.2682  -32.8513   24.9013 C   0  0  0  0  0  0  0  0  0  0  0  0
   -1.8334  -31.5607   24.3610 N   0  0  0  0  0  0  0  0  0  0  0  0
   -0.8325  -31.6975   23.2899 C   0  0  0  0  0  0  0  0  0  0  0  0
   -0.4424  -30.3311   22.6589 C   0  0  0  0  0  0  0  0  0  0  0  0
   -0.5286  -29.1473   23.5456 N   0  0  0  0  0  0  0  0  0  0  0  0
   -1.8085  -28.4436   23.3551 C   0  0  0  0  0  0  0  0  0  0  0  0
   -1.8671  -27.1083   24.0733 C   0  0  0  0  0  0  0  0  0  0  0  0
   -1.1118  -26.0252   23.6074 C   0  0  0  0  0  0  0  0  0  0  0  0
   -1.1846  -24.7905   24.2480 C   0  0  0  0  0  0  0  0  0  0  0  0
   -1.9885  -24.6293   25.3757 C   0  0  0  0  0  0  0  0  0  0  0  0
   -2.7484  -25.6971   25.8613 C   0  0  0  0  0  0  0  0  0  0  0  0
   -3.5988  -25.5218   27.0827 C   0  0  0  0  0  0  0  0  0  0  0  0
   -2.6775  -26.9350   25.2077 C   0  0  0  0  0  0  0  0  0  0  0  0
   -0.3396  -29.5813   24.9377 C   0  0  0  0  0  0  0  0  0  0  0  0
   -1.3054  -30.6912   25.4306 C   0  0  0  0  0  0  0  0  0  0  0  0
  1  2  1  0
  2  3  1  0
  3  4  3  0
  4  5  1  0
  5  6  1  0
  6  7  1  0
  7  8  1  0
  8  9  1  0
  9 10  1  0
 10 11  1  0
 11 12  2  0
 12 13  1  0
 13 14  2  0
 14 15  1  0
 15 16  1  0
 15 17  2  0
  9 18  1  0
 18 19  1  0
 19  6  1  0
 17 11  1  0
M  END
>  <inchikey>  (1242) 
BULKJSKFOSAFOK-UHFFFAOYSA-N

>  <tags>  (1242) 
fragmenstein_placed,CpKRS_FrAncestor_bulkdock_iter2

>  <ref_pdb>  (1242) 
x0646a

>  <energy_score>  (1242) 
-22.881478

>  <distance_score>  (1242) 
0.386885

>  <HIPPO Pose ID>  (1242) 
59114

>  <ref_mols>  (1242) 
x0675b

>  <smiles>  (1242) 
CCC#CCN1CCN(Cc2cccc(C)c2)CC1

>  <HIPPO Compound ID>  (1242) 
369126

>  <alias>  (1242) 
BULKJSKFOSAFOK-UHFFFAOYSA-N-P60

>  <subsites>  (1242) 


>  <placement_batch>  (1242) 
CpKRS_FrAncestor_bulkdock_iter2

>  <name>  (1242) 
BULKJSKFOSAFOK-UHFFFAOYSA-N-P60

$$$$
ZYKJKXVYHSUXOX-UHFFFAOYSA-N-P60
     RDKit          3D

 19 20  0  0  0  0  0  0  0  0999 V2000
   -3.6257  -33.8332   26.3369 C   0  0  0  0  0  0  0  0  0  0  0  0
   -2.9561  -33.5666   25.3749 C   0  0  0  0  0  0  0  0  0  0  0  0
   -2.1282  -33.2454   24.1765 C   0  0  0  0  0  0  0  0  0  0  0  0
   -1.3679  -34.5463   23.8206 C   0  0  0  0  0  0  0  0  0  0  0  0
   -3.0752  -32.8923   23.0119 C   0  0  0  0  0  0  0  0  0  0  0  0
   -1.1589  -32.1713   24.4882 N   0  0  0  0  0  0  0  0  0  0  0  0
   -1.7079  -31.0214   25.2332 C   0  0  0  0  0  0  0  0  0  0  0  0
   -0.8401  -29.7523   25.1075 C   0  0  0  0  0  0  0  0  0  0  0  0
   -0.7413  -29.2399   23.7298 N   0  0  0  0  0  0  0  0  0  0  0  0
   -1.8669  -28.3715   23.3517 C   0  0  0  0  0  0  0  0  0  0  0  0
   -1.9004  -27.0439   24.0754 C   0  0  0  0  0  0  0  0  0  0  0  0
   -1.1097  -25.9785   23.6310 C   0  0  0  0  0  0  0  0  0  0  0  0
   -1.1787  -24.7425   24.2689 C   0  0  0  0  0  0  0  0  0  0  0  0
   -2.0019  -24.5678   25.3806 C   0  0  0  0  0  0  0  0  0  0  0  0
   -2.7913  -25.6202   25.8488 C   0  0  0  0  0  0  0  0  0  0  0  0
   -3.6466  -25.4396   27.0655 C   0  0  0  0  0  0  0  0  0  0  0  0
   -2.7366  -26.8534   25.1885 C   0  0  0  0  0  0  0  0  0  0  0  0
   -0.6390  -30.3615   22.7671 C   0  0  0  0  0  0  0  0  0  0  0  0
   -0.2761  -31.7326   23.3886 C   0  0  0  0  0  0  0  0  0  0  0  0
  1  2  3  0
  2  3  1  0
  3  4  1  0
  3  5  1  0
  3  6  1  0
  6  7  1  0
  7  8  1  0
  8  9  1  0
  9 10  1  0
 10 11  1  0
 11 12  2  0
 12 13  1  0
 13 14  2  0
 14 15  1  0
 15 16  1  0
 15 17  2  0
  9 18  1  0
 18 19  1  0
 19  6  1  0
 17 11  1  0
M  END
>  <inchikey>  (1243) 
ZYKJKXVYHSUXOX-UHFFFAOYSA-N

>  <tags>  (1243) 
fragmenstein_placed,CpKRS_FrAncestor_bulkdock_iter2

>  <ref_pdb>  (1243) 
x0646a

>  <energy_score>  (1243) 
-27.336673

>  <distance_score>  (1243) 
0.396149

>  <HIPPO Pose ID>  (1243) 
59116

>  <ref_mols>  (1243) 
x0675b

>  <smiles>  (1243) 
C#CC(C)(C)N1CCN(Cc2cccc(C)c2)CC1

>  <HIPPO Compound ID>  (1243) 
382175

>  <alias>  (1243) 
ZYKJKXVYHSUXOX-UHFFFAOYSA-N-P60

>  <subsites>  (1243) 


>  <placement_batch>  (1243) 
CpKRS_FrAncestor_bulkdock_iter2

>  <name>  (1243) 
ZYKJKXVYHSUXOX-UHFFFAOYSA-N-P60

$$$$
VIRIQUKTUQVMOX-UHFFFAOYSA-N-P60
     RDKit          3D

 19 20  0  0  0  0  0  0  0  0999 V2000
   -5.2686  -32.1769   27.7534 C   0  0  0  0  0  0  0  0  0  0  0  0
   -4.2159  -32.4204   26.7680 C   0  0  0  0  0  0  0  0  0  0  0  0
   -3.3536  -32.6122   25.9528 C   0  0  0  0  0  0  0  0  0  0  0  0
   -2.2884  -32.8473   24.9479 C   0  0  1  0  0  0  0  0  0  0  0  0
   -2.8521  -33.8113   23.8923 C   0  0  0  0  0  0  0  0  0  0  0  0
   -1.8248  -31.5664   24.3746 N   0  0  0  0  0  0  0  0  0  0  0  0
   -0.8221  -31.7172   23.3070 C   0  0  0  0  0  0  0  0  0  0  0  0
   -0.4051  -30.3657   22.6567 C   0  0  0  0  0  0  0  0  0  0  0  0
   -0.4917  -29.1652   23.5159 N   0  0  0  0  0  0  0  0  0  0  0  0
   -1.7709  -28.4655   23.3098 C   0  0  0  0  0  0  0  0  0  0  0  0
   -1.8302  -27.1228   24.0111 C   0  0  0  0  0  0  0  0  0  0  0  0
   -1.0918  -26.0353   23.5225 C   0  0  0  0  0  0  0  0  0  0  0  0
   -1.1548  -24.7950   24.1576 C   0  0  0  0  0  0  0  0  0  0  0  0
   -1.9289  -24.6347   25.3055 C   0  0  0  0  0  0  0  0  0  0  0  0
   -2.6507  -25.7136   25.8057 C   0  0  0  0  0  0  0  0  0  0  0  0
   -3.6051  -25.5190   27.2231 Cl  0  0  0  0  0  0  0  0  0  0  0  0
   -2.6132  -26.9500   25.1626 C   0  0  0  0  0  0  0  0  0  0  0  0
   -0.3045  -29.5794   24.9140 C   0  0  0  0  0  0  0  0  0  0  0  0
   -1.2927  -30.6607   25.4233 C   0  0  0  0  0  0  0  0  0  0  0  0
  1  2  1  0
  2  3  3  0
  3  4  1  0
  4  5  1  6
  4  6  1  0
  6  7  1  0
  7  8  1  0
  8  9  1  0
  9 10  1  0
 10 11  1  0
 11 12  2  0
 12 13  1  0
 13 14  2  0
 14 15  1  0
 15 16  1  0
 15 17  2  0
  9 18  1  0
 18 19  1  0
 19  6  1  0
 17 11  1  0
M  END
>  <inchikey>  (1244) 
VIRIQUKTUQVMOX-UHFFFAOYSA-N

>  <tags>  (1244) 
fragmenstein_placed,CpKRS_FrAncestor_bulkdock_iter2

>  <ref_pdb>  (1244) 
x0646a

>  <energy_score>  (1244) 
-28.242983

>  <distance_score>  (1244) 
0.385635

>  <HIPPO Pose ID>  (1244) 
59118

>  <ref_mols>  (1244) 
x0675b

>  <smiles>  (1244) 
CC#CC(C)N1CCN(Cc2cccc(Cl)c2)CC1

>  <HIPPO Compound ID>  (1244) 
369762

>  <alias>  (1244) 
VIRIQUKTUQVMOX-UHFFFAOYSA-N-P60

>  <subsites>  (1244) 


>  <placement_batch>  (1244) 
CpKRS_FrAncestor_bulkdock_iter2

>  <name>  (1244) 
VIRIQUKTUQVMOX-UHFFFAOYSA-N-P60

$$$$
ZNXSNBLLFHUJHW-UHFFFAOYSA-N-P59
     RDKit          3D

 19 20  0  0  0  0  0  0  0  0999 V2000
   -1.3549  -22.9339   14.0937 C   0  0  0  0  0  0  0  0  0  0  0  0
   -0.3577  -23.7648   13.3040 C   0  0  0  0  0  0  0  0  0  0  0  0
    0.3349  -24.7285   14.1685 C   0  0  0  0  0  0  0  0  0  0  0  0
    0.9173  -25.4729   14.9110 C   0  0  0  0  0  0  0  0  0  0  0  0
    1.6717  -26.3242   15.8465 C   0  0  0  0  0  0  0  0  0  0  0  0
    1.7991  -25.7203   17.1708 N   0  0  0  0  0  0  0  0  0  0  0  0
    2.4621  -24.4014   17.1501 C   0  0  0  0  0  0  0  0  0  0  0  0
    3.4610  -24.1320   18.3011 C   0  0  0  0  0  0  0  0  0  0  0  0
    2.9851  -24.6036   19.6049 N   0  0  0  0  0  0  0  0  0  0  0  0
    3.9338  -24.4129   20.6980 C   0  0  0  0  0  0  0  0  0  0  0  0
    4.3121  -22.9744   20.9324 C   0  0  0  0  0  0  0  0  0  0  0  0
    5.4807  -22.4176   20.3860 C   0  0  0  0  0  0  0  0  0  0  0  0
    5.8216  -21.0927   20.6501 C   0  0  0  0  0  0  0  0  0  0  0  0
    4.9958  -20.3162   21.4548 C   0  0  0  0  0  0  0  0  0  0  0  0
    3.8509  -20.8659   22.0199 C   0  0  0  0  0  0  0  0  0  0  0  0
    2.9010  -19.9339   23.0991 Cl  0  0  0  0  0  0  0  0  0  0  0  0
    3.4862  -22.1765   21.7348 C   0  0  0  0  0  0  0  0  0  0  0  0
    2.5024  -25.9956   19.5581 C   0  0  0  0  0  0  0  0  0  0  0  0
    2.4174  -26.6178   18.1470 C   0  0  0  0  0  0  0  0  0  0  0  0
  1  2  1  0
  2  3  1  0
  3  4  3  0
  4  5  1  0
  5  6  1  0
  6  7  1  0
  7  8  1  0
  8  9  1  0
  9 10  1  0
 10 11  1  0
 11 12  2  0
 12 13  1  0
 13 14  2  0
 14 15  1  0
 15 16  1  0
 15 17  2  0
  9 18  1  0
 18 19  1  0
 19  6  1  0
 17 11  1  0
M  END
>  <inchikey>  (1245) 
ZNXSNBLLFHUJHW-UHFFFAOYSA-N

>  <tags>  (1245) 
fragmenstein_placed,CpKRS_FrAncestor_bulkdock_iter2

>  <ref_pdb>  (1245) 
x0646a

>  <energy_score>  (1245) 
-31.133912

>  <distance_score>  (1245) 
0.447121

>  <HIPPO Pose ID>  (1245) 
59119

>  <ref_mols>  (1245) 
x0675a

>  <smiles>  (1245) 
CCC#CCN1CCN(Cc2cccc(Cl)c2)CC1

>  <HIPPO Compound ID>  (1245) 
369763

>  <alias>  (1245) 
ZNXSNBLLFHUJHW-UHFFFAOYSA-N-P59

>  <subsites>  (1245) 


>  <placement_batch>  (1245) 
CpKRS_FrAncestor_bulkdock_iter2

>  <name>  (1245) 
ZNXSNBLLFHUJHW-UHFFFAOYSA-N-P59

$$$$
VLNZOVOXNKZOLG-UHFFFAOYSA-N-P60
     RDKit          3D

 19 20  0  0  0  0  0  0  0  0999 V2000
   -0.6792  -35.4891   23.5850 C   0  0  0  0  0  0  0  0  0  0  0  0
   -1.3113  -34.5025   23.8524 C   0  0  0  0  0  0  0  0  0  0  0  0
   -2.0897  -33.2774   24.1874 C   0  0  0  0  0  0  0  0  0  0  0  0
   -2.9552  -33.6349   25.4203 C   0  0  0  0  0  0  0  0  0  0  0  0
   -3.0339  -32.9535   23.0115 C   0  0  0  0  0  0  0  0  0  0  0  0
   -1.1495  -32.1793   24.4925 N   0  0  0  0  0  0  0  0  0  0  0  0
   -1.7068  -31.0327   25.2254 C   0  0  0  0  0  0  0  0  0  0  0  0
   -0.8374  -29.7647   25.0996 C   0  0  0  0  0  0  0  0  0  0  0  0
   -0.7271  -29.2595   23.7195 N   0  0  0  0  0  0  0  0  0  0  0  0
   -1.8445  -28.3911   23.3222 C   0  0  0  0  0  0  0  0  0  0  0  0
   -1.8730  -27.0572   24.0331 C   0  0  0  0  0  0  0  0  0  0  0  0
   -1.0824  -25.9940   23.5774 C   0  0  0  0  0  0  0  0  0  0  0  0
   -1.1454  -24.7498   24.2043 C   0  0  0  0  0  0  0  0  0  0  0  0
   -1.9598  -24.5656   25.3205 C   0  0  0  0  0  0  0  0  0  0  0  0
   -2.7276  -25.6232   25.7932 C   0  0  0  0  0  0  0  0  0  0  0  0
   -3.7301  -25.4076   27.1728 Cl  0  0  0  0  0  0  0  0  0  0  0  0
   -2.7012  -26.8577   25.1485 C   0  0  0  0  0  0  0  0  0  0  0  0
   -0.6155  -30.3876   22.7625 C   0  0  0  0  0  0  0  0  0  0  0  0
   -0.2575  -31.7545   23.3937 C   0  0  0  0  0  0  0  0  0  0  0  0
  1  2  3  0
  2  3  1  0
  3  4  1  0
  3  5  1  0
  3  6  1  0
  6  7  1  0
  7  8  1  0
  8  9  1  0
  9 10  1  0
 10 11  1  0
 11 12  2  0
 12 13  1  0
 13 14  2  0
 14 15  1  0
 15 16  1  0
 15 17  2  0
  9 18  1  0
 18 19  1  0
 19  6  1  0
 17 11  1  0
M  END
>  <inchikey>  (1246) 
VLNZOVOXNKZOLG-UHFFFAOYSA-N

>  <tags>  (1246) 
fragmenstein_placed,CpKRS_FrAncestor_bulkdock_iter2

>  <ref_pdb>  (1246) 
x0646a

>  <energy_score>  (1246) 
-36.277333

>  <distance_score>  (1246) 
0.391618

>  <HIPPO Pose ID>  (1246) 
59122

>  <ref_mols>  (1246) 
x0675b

>  <smiles>  (1246) 
C#CC(C)(C)N1CCN(Cc2cccc(Cl)c2)CC1

>  <HIPPO Compound ID>  (1246) 
382172

>  <alias>  (1246) 
VLNZOVOXNKZOLG-UHFFFAOYSA-N-P60

>  <subsites>  (1246) 


>  <placement_batch>  (1246) 
CpKRS_FrAncestor_bulkdock_iter2

>  <name>  (1246) 
VLNZOVOXNKZOLG-UHFFFAOYSA-N-P60

$$$$
LQECDUJJSXXNCR-UHFFFAOYSA-N-P6
     RDKit          3D

 15 15  0  0  0  0  0  0  0  0999 V2000
    1.3644  -17.7676   24.9586 C   0  0  0  0  0  0  0  0  0  0  0  0
    0.6644  -16.6227   24.2529 C   0  0  0  0  0  0  0  0  0  0  0  0
    0.8868  -15.3531   24.9565 C   0  0  0  0  0  0  0  0  0  0  0  0
    1.1023  -14.3079   25.5095 C   0  0  0  0  0  0  0  0  0  0  0  0
    1.4035  -13.0021   26.1212 C   0  0  0  0  0  0  0  0  0  0  0  0
    2.8276  -12.8502   26.4501 N   0  0  0  0  0  0  0  0  0  0  0  0
    3.0326  -11.5753   27.1747 C   0  0  0  0  0  0  0  0  0  0  0  0
    4.4884  -11.0681   27.0925 C   0  0  0  0  0  0  0  0  0  0  0  0
    4.9712  -10.8073   25.7143 N   0  0  0  0  0  0  0  0  0  0  0  0
    5.0061   -9.3575   25.4512 C   0  0  0  0  0  0  0  0  0  0  0  0
    5.2444   -8.9537   23.9896 C   0  0  2  0  0  0  0  0  0  0  0  0
    5.9420   -7.6160   23.8704 C   0  0  0  0  0  0  0  0  0  0  0  0
    4.0216   -8.8258   23.3800 F   0  0  0  0  0  0  0  0  0  0  0  0
    4.1577  -11.5537   24.7347 C   0  0  0  0  0  0  0  0  0  0  0  0
    3.7095  -12.9286   25.2704 C   0  0  0  0  0  0  0  0  0  0  0  0
  1  2  1  0
  2  3  1  0
  3  4  3  0
  4  5  1  0
  5  6  1  0
  6  7  1  0
  7  8  1  0
  8  9  1  0
  9 10  1  0
 10 11  1  0
 11 12  1  1
 11 13  1  0
  9 14  1  0
 14 15  1  0
 15  6  1  0
M  END
>  <inchikey>  (1247) 
LQECDUJJSXXNCR-UHFFFAOYSA-N

>  <tags>  (1247) 
fragmenstein_placed,CpKRS_FrAncestor_bulkdock_iter2

>  <ref_pdb>  (1247) 
x0646a

>  <energy_score>  (1247) 
-38.225861

>  <distance_score>  (1247) 
0.662072

>  <HIPPO Pose ID>  (1247) 
59129

>  <ref_mols>  (1247) 
x0414a

>  <smiles>  (1247) 
CCC#CCN1CCN(CC(C)F)CC1

>  <HIPPO Compound ID>  (1247) 
446441

>  <alias>  (1247) 
LQECDUJJSXXNCR-UHFFFAOYSA-N-P6

>  <subsites>  (1247) 


>  <placement_batch>  (1247) 
CpKRS_FrAncestor_bulkdock_iter2

>  <name>  (1247) 
LQECDUJJSXXNCR-UHFFFAOYSA-N-P6

$$$$
FFHKONBJNJRQPA-UHFFFAOYSA-N-P6
     RDKit          3D

 15 15  0  0  0  0  0  0  0  0999 V2000
    1.5034  -17.3352   25.4022 C   0  0  0  0  0  0  0  0  0  0  0  0
    1.5447  -15.8751   25.3530 C   0  0  0  0  0  0  0  0  0  0  0  0
    1.6096  -14.6756   25.3351 C   0  0  0  0  0  0  0  0  0  0  0  0
    1.7320  -13.2020   25.3173 C   0  0  2  0  0  0  0  0  0  0  0  0
    1.9212  -12.7227   23.8725 C   0  0  0  0  0  0  0  0  0  0  0  0
    2.7703  -12.7728   26.2595 N   0  0  0  0  0  0  0  0  0  0  0  0
    2.6284  -11.3715   26.6832 C   0  0  0  0  0  0  0  0  0  0  0  0
    3.9417  -10.7033   27.1325 C   0  0  0  0  0  0  0  0  0  0  0  0
    5.0323  -10.7685   26.1479 N   0  0  0  0  0  0  0  0  0  0  0  0
    5.2424   -9.5138   25.4029 C   0  0  1  0  0  0  0  0  0  0  0  0
    6.5814   -9.5703   24.6911 C   0  0  0  0  0  0  0  0  0  0  0  0
    4.1464   -9.1221   24.3921 C   0  0  0  0  0  0  0  0  0  0  0  0
    4.5663   -8.0989   23.4901 O   0  0  0  0  0  0  0  0  0  0  0  0
    4.9884  -11.9935   25.3368 C   0  0  0  0  0  0  0  0  0  0  0  0
    4.1487  -13.1381   25.9350 C   0  0  0  0  0  0  0  0  0  0  0  0
  1  2  1  0
  2  3  3  0
  3  4  1  0
  4  5  1  6
  4  6  1  0
  6  7  1  0
  7  8  1  0
  8  9  1  0
  9 10  1  0
 10 11  1  6
 10 12  1  0
 12 13  1  0
  9 14  1  0
 14 15  1  0
 15  6  1  0
M  END
>  <inchikey>  (1248) 
FFHKONBJNJRQPA-UHFFFAOYSA-N

>  <tags>  (1248) 
fragmenstein_placed,CpKRS_FrAncestor_bulkdock_iter2

>  <ref_pdb>  (1248) 
x0646a

>  <energy_score>  (1248) 
-42.413766

>  <distance_score>  (1248) 
0.929841

>  <HIPPO Pose ID>  (1248) 
59139

>  <ref_mols>  (1248) 
x0414a

>  <smiles>  (1248) 
CC#CC(C)N1CCN(C(C)CO)CC1

>  <HIPPO Compound ID>  (1248) 
446446

>  <alias>  (1248) 
FFHKONBJNJRQPA-UHFFFAOYSA-N-P6

>  <subsites>  (1248) 


>  <placement_batch>  (1248) 
CpKRS_FrAncestor_bulkdock_iter2

>  <name>  (1248) 
FFHKONBJNJRQPA-UHFFFAOYSA-N-P6

$$$$
CTGHBKUKVGHENO-UHFFFAOYSA-N-P7
     RDKit          3D

 15 15  0  0  0  0  0  0  0  0999 V2000
    3.9162  -18.0357   25.0921 C   0  0  0  0  0  0  0  0  0  0  0  0
    2.4723  -17.6077   24.8876 C   0  0  0  0  0  0  0  0  0  0  0  0
    2.2212  -16.3320   25.5697 C   0  0  0  0  0  0  0  0  0  0  0  0
    2.1024  -15.2581   26.0954 C   0  0  0  0  0  0  0  0  0  0  0  0
    2.0388  -13.8917   26.6434 C   0  0  0  0  0  0  0  0  0  0  0  0
    3.2993  -13.1418   26.4235 N   0  0  0  0  0  0  0  0  0  0  0  0
    3.1105  -11.7628   26.9215 C   0  0  0  0  0  0  0  0  0  0  0  0
    4.2214  -10.7688   26.5027 C   0  0  0  0  0  0  0  0  0  0  0  0
    4.3860  -10.7460   25.0253 N   0  0  0  0  0  0  0  0  0  0  0  0
    5.3320   -9.7076   24.5477 C   0  0  1  0  0  0  0  0  0  0  0  0
    5.5987   -9.8191   23.0311 C   0  0  0  0  0  0  0  0  0  0  0  0
    4.6751   -8.3184   24.7360 C   0  0  0  0  0  0  0  0  0  0  0  0
    3.3678   -8.3477   24.1222 O   0  0  0  0  0  0  0  0  0  0  0  0
    4.7369  -12.1195   24.6184 C   0  0  0  0  0  0  0  0  0  0  0  0
    3.6186  -13.1094   24.9856 C   0  0  0  0  0  0  0  0  0  0  0  0
  1  2  1  0
  2  3  1  0
  3  4  3  0
  4  5  1  0
  5  6  1  0
  6  7  1  0
  7  8  1  0
  8  9  1  0
  9 10  1  0
 10 11  1  6
 10 12  1  0
 12 13  1  0
  9 14  1  0
 14 15  1  0
 15  6  1  0
M  END
>  <inchikey>  (1249) 
CTGHBKUKVGHENO-UHFFFAOYSA-N

>  <tags>  (1249) 
fragmenstein_placed,CpKRS_FrAncestor_bulkdock_iter2

>  <ref_pdb>  (1249) 
x0646a

>  <energy_score>  (1249) 
-52.118678

>  <distance_score>  (1249) 
0.862155

>  <HIPPO Pose ID>  (1249) 
59142

>  <ref_mols>  (1249) 
x0414b

>  <smiles>  (1249) 
CCC#CCN1CCN(C(C)CO)CC1

>  <HIPPO Compound ID>  (1249) 
446447

>  <alias>  (1249) 
CTGHBKUKVGHENO-UHFFFAOYSA-N-P7

>  <subsites>  (1249) 


>  <placement_batch>  (1249) 
CpKRS_FrAncestor_bulkdock_iter2

>  <name>  (1249) 
CTGHBKUKVGHENO-UHFFFAOYSA-N-P7

$$$$
ABHRXSSEBIAUJF-UHFFFAOYSA-N-P6
     RDKit          3D

 14 14  0  0  0  0  0  0  0  0999 V2000
    3.4948  -17.9516   25.2653 C   0  0  0  0  0  0  0  0  0  0  0  0
    2.0743  -17.4626   25.0458 C   0  0  0  0  0  0  0  0  0  0  0  0
    1.9129  -16.0979   25.5654 C   0  0  0  0  0  0  0  0  0  0  0  0
    1.8154  -14.9785   25.9912 C   0  0  0  0  0  0  0  0  0  0  0  0
    1.7077  -13.5900   26.4688 C   0  0  0  0  0  0  0  0  0  0  0  0
    2.9836  -12.8594   26.4015 N   0  0  0  0  0  0  0  0  0  0  0  0
    3.5748  -12.8942   25.0537 C   0  0  0  0  0  0  0  0  0  0  0  0
    4.2666  -11.5961   24.5835 C   0  0  0  0  0  0  0  0  0  0  0  0
    4.9789  -10.9100   25.6581 N   0  0  0  0  0  0  0  0  0  0  0  0
    5.7439   -9.7386   25.2200 C   0  0  0  0  0  0  0  0  0  0  0  0
    5.1011   -8.7710   24.2274 C   0  0  0  0  0  0  0  0  0  0  0  0
    5.9953   -7.7890   23.9215 F   0  0  0  0  0  0  0  0  0  0  0  0
    4.0735  -10.6005   26.7836 C   0  0  0  0  0  0  0  0  0  0  0  0
    2.8032  -11.4813   26.8844 C   0  0  0  0  0  0  0  0  0  0  0  0
  1  2  1  0
  2  3  1  0
  3  4  3  0
  4  5  1  0
  5  6  1  0
  6  7  1  0
  7  8  1  0
  8  9  1  0
  9 10  1  0
 10 11  1  0
 11 12  1  0
  9 13  1  0
 13 14  1  0
 14  6  1  0
M  END
>  <inchikey>  (1250) 
ABHRXSSEBIAUJF-UHFFFAOYSA-N

>  <tags>  (1250) 
fragmenstein_placed,CpKRS_FrAncestor_bulkdock_iter2

>  <ref_pdb>  (1250) 
x0646a

>  <energy_score>  (1250) 
-28.336587

>  <distance_score>  (1250) 
0.616242

>  <HIPPO Pose ID>  (1250) 
59145

>  <ref_mols>  (1250) 
x0414a

>  <smiles>  (1250) 
CCC#CCN1CCN(CCF)CC1

>  <HIPPO Compound ID>  (1250) 
387677

>  <alias>  (1250) 
ABHRXSSEBIAUJF-UHFFFAOYSA-N-P6

>  <subsites>  (1250) 


>  <placement_batch>  (1250) 
CpKRS_FrAncestor_bulkdock_iter2

>  <name>  (1250) 
ABHRXSSEBIAUJF-UHFFFAOYSA-N-P6

$$$$
JDVALRKQAWUHCT-KIYNQFGBSA-N-P6
     RDKit          3D

 15 15  0  0  0  0  0  0  0  0999 V2000
    1.9703  -17.5140   25.1320 C   0  0  0  0  0  0  0  0  0  0  0  0
    1.8577  -16.0797   25.4050 C   0  0  0  0  0  0  0  0  0  0  0  0
    1.7733  -14.9027   25.6348 C   0  0  0  0  0  0  0  0  0  0  0  0
    1.6628  -13.4479   25.8981 C   0  0  1  0  0  0  0  0  0  0  0  0
    0.4441  -13.2404   26.8131 C   0  0  0  0  0  0  0  0  0  0  0  0
    2.9149  -12.9039   26.4649 N   0  0  0  0  0  0  0  0  0  0  0  0
    4.0767  -13.0865   25.5756 C   0  0  0  0  0  0  0  0  0  0  0  0
    4.5241  -11.8085   24.8414 C   0  0  0  0  0  0  0  0  0  0  0  0
    4.9541  -10.7975   25.7947 N   0  0  0  0  0  0  0  0  0  0  0  0
    5.5602   -9.5777   25.2791 C   0  0  0  0  0  0  0  0  0  0  0  0
    5.0016   -9.0140   23.9505 C   0  0  2  0  0  0  0  0  0  0  0  0
    5.7955   -7.7842   23.5365 C   0  0  0  0  0  0  0  0  0  0  0  0
    3.6204   -8.6371   24.0403 O   0  0  0  0  0  0  0  0  0  0  0  0
    4.0886  -10.6726   26.9701 C   0  0  0  0  0  0  0  0  0  0  0  0
    2.7776  -11.4946   26.8955 C   0  0  0  0  0  0  0  0  0  0  0  0
  1  2  1  0
  2  3  3  0
  3  4  1  0
  4  5  1  1
  4  6  1  0
  6  7  1  0
  7  8  1  0
  8  9  1  0
  9 10  1  0
 10 11  1  0
 11 12  1  1
 11 13  1  0
  9 14  1  0
 14 15  1  0
 15  6  1  0
M  END
>  <inchikey>  (1251) 
JDVALRKQAWUHCT-UHFFFAOYSA-N

>  <tags>  (1251) 
fragmenstein_placed,CpKRS_FrAncestor_bulkdock_iter2

>  <ref_pdb>  (1251) 
x0646a

>  <energy_score>  (1251) 
-22.118362

>  <distance_score>  (1251) 
0.482925

>  <HIPPO Pose ID>  (1251) 
59147

>  <ref_mols>  (1251) 
x0414a

>  <smiles>  (1251) 
CC#CC(C)N1CCN(C[C@H](C)O)CC1

>  <HIPPO Compound ID>  (1251) 
446444

>  <alias>  (1251) 
JDVALRKQAWUHCT-KIYNQFGBSA-N-P6

>  <subsites>  (1251) 


>  <placement_batch>  (1251) 
CpKRS_FrAncestor_bulkdock_iter2

>  <name>  (1251) 
JDVALRKQAWUHCT-KIYNQFGBSA-N-P6

$$$$
FEXIFRLFEFNCRR-GFCCVEGCSA-N-P7
     RDKit          3D

 15 15  0  0  0  0  0  0  0  0999 V2000
   -0.4493  -14.3521   22.3717 C   0  0  0  0  0  0  0  0  0  0  0  0
   -0.7366  -13.5378   23.6218 C   0  0  0  0  0  0  0  0  0  0  0  0
    0.2318  -13.8378   24.6838 C   0  0  0  0  0  0  0  0  0  0  0  0
    1.0546  -14.0491   25.5341 C   0  0  0  0  0  0  0  0  0  0  0  0
    2.0990  -14.2871   26.5482 C   0  0  0  0  0  0  0  0  0  0  0  0
    3.2225  -13.3389   26.5271 N   0  0  0  0  0  0  0  0  0  0  0  0
    2.8187  -12.0047   27.0000 C   0  0  0  0  0  0  0  0  0  0  0  0
    3.9888  -10.9989   26.9720 C   0  0  0  0  0  0  0  0  0  0  0  0
    4.5444  -10.8774   25.6109 N   0  0  0  0  0  0  0  0  0  0  0  0
    5.5907   -9.8608   25.5338 C   0  0  0  0  0  0  0  0  0  0  0  0
    5.7335   -9.2601   24.1210 C   0  0  1  0  0  0  0  0  0  0  0  0
    4.4144   -8.7184   23.5984 C   0  0  0  0  0  0  0  0  0  0  0  0
    6.6718   -8.1799   24.1315 O   0  0  0  0  0  0  0  0  0  0  0  0
    5.0037  -12.2063   25.1676 C   0  0  0  0  0  0  0  0  0  0  0  0
    3.8692  -13.2538   25.2105 C   0  0  0  0  0  0  0  0  0  0  0  0
  1  2  1  0
  2  3  1  0
  3  4  3  0
  4  5  1  0
  5  6  1  0
  6  7  1  0
  7  8  1  0
  8  9  1  0
  9 10  1  0
 10 11  1  0
 11 12  1  1
 11 13  1  0
  9 14  1  0
 14 15  1  0
 15  6  1  0
M  END
>  <inchikey>  (1252) 
FEXIFRLFEFNCRR-UHFFFAOYSA-N

>  <tags>  (1252) 
fragmenstein_placed,CpKRS_FrAncestor_bulkdock_iter2

>  <ref_pdb>  (1252) 
x0646a

>  <energy_score>  (1252) 
-31.720935

>  <distance_score>  (1252) 
0.650257

>  <HIPPO Pose ID>  (1252) 
59154

>  <ref_mols>  (1252) 
x0414b

>  <smiles>  (1252) 
CCC#CCN1CCN(C[C@@H](C)O)CC1

>  <HIPPO Compound ID>  (1252) 
446445

>  <alias>  (1252) 
FEXIFRLFEFNCRR-GFCCVEGCSA-N-P7

>  <subsites>  (1252) 


>  <placement_batch>  (1252) 
CpKRS_FrAncestor_bulkdock_iter2

>  <name>  (1252) 
FEXIFRLFEFNCRR-GFCCVEGCSA-N-P7

$$$$
LAKXMJCYHLTFGF-UHFFFAOYSA-N-P7
     RDKit          3D

 14 14  0  0  0  0  0  0  0  0999 V2000
    4.1096   -9.1872   23.3163 C   0  0  0  0  0  0  0  0  0  0  0  0
    5.1178   -9.2646   24.2051 C   0  0  0  0  0  0  0  0  0  0  0  0
    6.0505   -8.0950   24.3716 C   0  0  0  0  0  0  0  0  0  0  0  0
    5.4455  -10.5886   24.9097 C   0  0  1  0  0  0  0  0  0  0  0  0
    6.3765  -10.4965   26.1146 C   0  0  0  0  0  0  0  0  0  0  0  0
    4.2623  -11.4246   25.1782 N   0  0  0  0  0  0  0  0  0  0  0  0
    4.5919  -12.8639   25.1087 C   0  0  0  0  0  0  0  0  0  0  0  0
    3.3565  -13.7583   25.3279 C   0  0  0  0  0  0  0  0  0  0  0  0
    2.7022  -13.4689   26.6069 N   0  0  0  0  0  0  0  0  0  0  0  0
    1.5362  -14.3276   26.8795 C   0  0  0  0  0  0  0  0  0  0  0  0
    0.4827  -14.4398   25.8454 C   0  0  0  0  0  0  0  0  0  0  0  0
   -0.3424  -14.6412   25.0511 N   0  0  0  0  0  0  0  0  0  0  0  0
    2.3694  -12.0414   26.7030 C   0  0  0  0  0  0  0  0  0  0  0  0
    3.5966  -11.1330   26.4656 C   0  0  0  0  0  0  0  0  0  0  0  0
  1  2  2  0
  2  3  1  0
  2  4  1  0
  4  5  1  1
  4  6  1  0
  6  7  1  0
  7  8  1  0
  8  9  1  0
  9 10  1  0
 10 11  1  0
 11 12  3  0
  9 13  1  0
 13 14  1  0
 14  6  1  0
M  END
>  <inchikey>  (1253) 
LAKXMJCYHLTFGF-UHFFFAOYSA-N

>  <tags>  (1253) 
fragmenstein_placed,CpKRS_FrAncestor_bulkdock_iter2

>  <ref_pdb>  (1253) 
x0646a

>  <energy_score>  (1253) 
-39.570329

>  <distance_score>  (1253) 
0.94417

>  <HIPPO Pose ID>  (1253) 
59156

>  <ref_mols>  (1253) 
x0414b

>  <smiles>  (1253) 
C=C(C)C(C)N1CCN(CC#N)CC1

>  <HIPPO Compound ID>  (1253) 
387286

>  <alias>  (1253) 
LAKXMJCYHLTFGF-UHFFFAOYSA-N-P7

>  <subsites>  (1253) 


>  <placement_batch>  (1253) 
CpKRS_FrAncestor_bulkdock_iter2

>  <name>  (1253) 
LAKXMJCYHLTFGF-UHFFFAOYSA-N-P7

$$$$
QDFXHKVOJWTAGH-UHFFFAOYSA-N-P6
     RDKit          3D

 14 14  0  0  0  0  0  0  0  0999 V2000
   -0.5983  -12.5650   23.6804 C   0  0  0  0  0  0  0  0  0  0  0  0
   -0.0520  -12.7562   25.0735 C   0  0  0  0  0  0  0  0  0  0  0  0
   -0.9457  -12.2260   26.1593 C   0  0  0  0  0  0  0  0  0  0  0  0
    1.1529  -13.3328   25.2595 C   0  0  0  0  0  0  0  0  0  0  0  0
    1.8766  -13.6101   26.5514 C   0  0  0  0  0  0  0  0  0  0  0  0
    3.1070  -12.8508   26.7447 N   0  0  0  0  0  0  0  0  0  0  0  0
    2.8877  -11.4142   26.9458 C   0  0  0  0  0  0  0  0  0  0  0  0
    4.1955  -10.5896   26.9650 C   0  0  0  0  0  0  0  0  0  0  0  0
    5.1368  -10.8546   25.8545 N   0  0  0  0  0  0  0  0  0  0  0  0
    5.4965   -9.6422   25.1013 C   0  0  0  0  0  0  0  0  0  0  0  0
    4.4434   -9.0883   24.2247 C   0  0  0  0  0  0  0  0  0  0  0  0
    3.6021   -8.6820   23.5318 N   0  0  0  0  0  0  0  0  0  0  0  0
    4.6701  -11.9538   24.9944 C   0  0  0  0  0  0  0  0  0  0  0  0
    4.1923  -13.1657   25.8172 C   0  0  0  0  0  0  0  0  0  0  0  0
  1  2  1  0
  2  3  1  0
  2  4  2  3
  4  5  1  0
  5  6  1  0
  6  7  1  0
  7  8  1  0
  8  9  1  0
  9 10  1  0
 10 11  1  0
 11 12  3  0
  9 13  1  0
 13 14  1  0
 14  6  1  0
M  END
>  <inchikey>  (1254) 
QDFXHKVOJWTAGH-UHFFFAOYSA-N

>  <tags>  (1254) 
fragmenstein_placed,CpKRS_FrAncestor_bulkdock_iter2

>  <ref_pdb>  (1254) 
x0646a

>  <energy_score>  (1254) 
-21.874109

>  <distance_score>  (1254) 
0.537356

>  <HIPPO Pose ID>  (1254) 
59157

>  <ref_mols>  (1254) 
x0414a

>  <smiles>  (1254) 
CC(C)=CCN1CCN(CC#N)CC1

>  <HIPPO Compound ID>  (1254) 
387280

>  <alias>  (1254) 
QDFXHKVOJWTAGH-UHFFFAOYSA-N-P6

>  <subsites>  (1254) 


>  <placement_batch>  (1254) 
CpKRS_FrAncestor_bulkdock_iter2

>  <name>  (1254) 
QDFXHKVOJWTAGH-UHFFFAOYSA-N-P6

$$$$
GKFGULUEAZQXJS-UHFFFAOYSA-N-P7
     RDKit          3D

 14 14  0  0  0  0  0  0  0  0999 V2000
   -1.7585  -13.6600   26.4309 C   0  0  0  0  0  0  0  0  0  0  0  0
   -0.3601  -13.8006   26.0379 C   0  0  0  0  0  0  0  0  0  0  0  0
    0.7959  -13.8889   25.7224 C   0  0  0  0  0  0  0  0  0  0  0  0
    2.2116  -13.9841   25.3008 C   0  0  2  0  0  0  0  0  0  0  0  0
    2.4924  -15.4742   25.0228 C   0  0  0  0  0  0  0  0  0  0  0  0
    3.1481  -13.4377   26.3071 N   0  0  0  0  0  0  0  0  0  0  0  0
    2.8445  -12.0651   26.7519 C   0  0  0  0  0  0  0  0  0  0  0  0
    3.4533  -10.9220   25.8927 C   0  0  0  0  0  0  0  0  0  0  0  0
    4.8510  -11.1372   25.4444 N   0  0  0  0  0  0  0  0  0  0  0  0
    5.6930   -9.9498   25.6322 C   0  0  0  0  0  0  0  0  0  0  0  0
    5.4957   -8.8821   24.6252 C   0  0  0  0  0  0  0  0  0  0  0  0
    5.4175   -8.0239   23.8449 N   0  0  0  0  0  0  0  0  0  0  0  0
    5.4151  -12.3086   26.1326 C   0  0  0  0  0  0  0  0  0  0  0  0
    4.5458  -13.5474   25.8535 C   0  0  0  0  0  0  0  0  0  0  0  0
  1  2  1  0
  2  3  3  0
  3  4  1  0
  4  5  1  1
  4  6  1  0
  6  7  1  0
  7  8  1  0
  8  9  1  0
  9 10  1  0
 10 11  1  0
 11 12  3  0
  9 13  1  0
 13 14  1  0
 14  6  1  0
M  END
>  <inchikey>  (1255) 
GKFGULUEAZQXJS-UHFFFAOYSA-N

>  <tags>  (1255) 
fragmenstein_placed,CpKRS_FrAncestor_bulkdock_iter2

>  <ref_pdb>  (1255) 
x0646a

>  <energy_score>  (1255) 
-22.228454

>  <distance_score>  (1255) 
0.916932

>  <HIPPO Pose ID>  (1255) 
59160

>  <ref_mols>  (1255) 
x0414b

>  <smiles>  (1255) 
CC#CC(C)N1CCN(CC#N)CC1

>  <HIPPO Compound ID>  (1255) 
387287

>  <alias>  (1255) 
GKFGULUEAZQXJS-UHFFFAOYSA-N-P7

>  <subsites>  (1255) 


>  <placement_batch>  (1255) 
CpKRS_FrAncestor_bulkdock_iter2

>  <name>  (1255) 
GKFGULUEAZQXJS-UHFFFAOYSA-N-P7

$$$$
FJYIRVUTGPELFK-UHFFFAOYSA-N-P6
     RDKit          3D

 14 14  0  0  0  0  0  0  0  0999 V2000
    5.1909   -9.7858   21.2165 C   0  0  0  0  0  0  0  0  0  0  0  0
    5.0401   -8.4914   21.9880 C   0  0  0  0  0  0  0  0  0  0  0  0
    5.3262   -8.7435   23.3980 C   0  0  0  0  0  0  0  0  0  0  0  0
    5.5389   -9.1587   24.5028 C   0  0  0  0  0  0  0  0  0  0  0  0
    5.8414   -9.7959   25.7894 C   0  0  0  0  0  0  0  0  0  0  0  0
    4.9637  -10.8966   26.1619 N   0  0  0  0  0  0  0  0  0  0  0  0
    3.6360  -10.4479   26.5695 C   0  0  0  0  0  0  0  0  0  0  0  0
    2.7470  -11.5964   27.0989 C   0  0  0  0  0  0  0  0  0  0  0  0
    2.9498  -12.9189   26.4656 N   0  0  0  0  0  0  0  0  0  0  0  0
    1.6724  -13.6575   26.4192 C   0  0  0  0  0  0  0  0  0  0  0  0
    1.7417  -15.0135   25.8315 C   0  0  0  0  0  0  0  0  0  0  0  0
    1.7404  -16.0502   25.3070 N   0  0  0  0  0  0  0  0  0  0  0  0
    3.5777  -12.7712   25.1492 C   0  0  0  0  0  0  0  0  0  0  0  0
    4.9287  -12.0174   25.2186 C   0  0  0  0  0  0  0  0  0  0  0  0
  1  2  1  0
  2  3  1  0
  3  4  3  0
  4  5  1  0
  5  6  1  0
  6  7  1  0
  7  8  1  0
  8  9  1  0
  9 10  1  0
 10 11  1  0
 11 12  3  0
  9 13  1  0
 13 14  1  0
 14  6  1  0
M  END
>  <inchikey>  (1256) 
FJYIRVUTGPELFK-UHFFFAOYSA-N

>  <tags>  (1256) 
fragmenstein_placed,CpKRS_FrAncestor_bulkdock_iter2

>  <ref_pdb>  (1256) 
x0646a

>  <energy_score>  (1256) 
-16.145637

>  <distance_score>  (1256) 
0.658659

>  <HIPPO Pose ID>  (1256) 
59161

>  <ref_mols>  (1256) 
x0414a

>  <smiles>  (1256) 
CCC#CCN1CCN(CC#N)CC1

>  <HIPPO Compound ID>  (1256) 
387288

>  <alias>  (1256) 
FJYIRVUTGPELFK-UHFFFAOYSA-N-P6

>  <subsites>  (1256) 


>  <placement_batch>  (1256) 
CpKRS_FrAncestor_bulkdock_iter2

>  <name>  (1256) 
FJYIRVUTGPELFK-UHFFFAOYSA-N-P6

$$$$
TWZXIPYMSQPFJF-UHFFFAOYSA-N-P7
     RDKit          3D

 14 14  0  0  0  0  0  0  0  0999 V2000
    2.7370   -9.1922   23.6001 C   0  0  0  0  0  0  0  0  0  0  0  0
    3.7901   -9.0478   24.1604 C   0  0  0  0  0  0  0  0  0  0  0  0
    5.0207   -9.1003   24.9841 C   0  0  0  0  0  0  0  0  0  0  0  0
    5.4684  -10.5759   25.1915 C   0  0  1  0  0  0  0  0  0  0  0  0
    6.6047  -10.7078   26.1944 C   0  0  0  0  0  0  0  0  0  0  0  0
    4.3374  -11.4341   25.5447 N   0  0  0  0  0  0  0  0  0  0  0  0
    4.5000  -12.8332   25.1348 C   0  0  0  0  0  0  0  0  0  0  0  0
    3.1473  -13.5645   25.2385 C   0  0  0  0  0  0  0  0  0  0  0  0
    2.5618  -13.5254   26.5920 N   0  0  0  0  0  0  0  0  0  0  0  0
    1.1515  -13.9993   26.6149 C   0  0  0  0  0  0  0  0  0  0  0  0
    0.8174  -15.1416   25.7341 C   0  0  0  0  0  0  0  0  0  0  0  0
    0.4819  -15.9783   24.9986 N   0  0  0  0  0  0  0  0  0  0  0  0
    2.5663  -12.1334   27.0996 C   0  0  0  0  0  0  0  0  0  0  0  0
    3.8987  -11.3847   26.9468 C   0  0  0  0  0  0  0  0  0  0  0  0
  1  2  3  0
  2  3  1  0
  3  4  1  0
  4  5  1  1
  4  6  1  0
  6  7  1  0
  7  8  1  0
  8  9  1  0
  9 10  1  0
 10 11  1  0
 11 12  3  0
  9 13  1  0
 13 14  1  0
 14  6  1  0
M  END
>  <inchikey>  (1257) 
TWZXIPYMSQPFJF-UHFFFAOYSA-N

>  <tags>  (1257) 
fragmenstein_placed,CpKRS_FrAncestor_bulkdock_iter2

>  <ref_pdb>  (1257) 
x0646a

>  <energy_score>  (1257) 
-31.989188

>  <distance_score>  (1257) 
0.920629

>  <HIPPO Pose ID>  (1257) 
59164

>  <ref_mols>  (1257) 
x0414b

>  <smiles>  (1257) 
C#CCC(C)N1CCN(CC#N)CC1

>  <HIPPO Compound ID>  (1257) 
387289

>  <alias>  (1257) 
TWZXIPYMSQPFJF-UHFFFAOYSA-N-P7

>  <subsites>  (1257) 


>  <placement_batch>  (1257) 
CpKRS_FrAncestor_bulkdock_iter2

>  <name>  (1257) 
TWZXIPYMSQPFJF-UHFFFAOYSA-N-P7

$$$$
JZLMJEVQZXTTDN-UHFFFAOYSA-N-P7
     RDKit          3D

 14 14  0  0  0  0  0  0  0  0999 V2000
    1.1173   -9.5373   23.4253 C   0  0  0  0  0  0  0  0  0  0  0  0
    2.4991   -9.1594   23.7415 C   0  0  0  0  0  0  0  0  0  0  0  0
    3.6302   -8.9082   24.0681 C   0  0  0  0  0  0  0  0  0  0  0  0
    4.9987   -8.7301   24.6161 C   0  0  0  0  0  0  0  0  0  0  0  0
    5.7001  -10.0905   24.8235 C   0  0  0  0  0  0  0  0  0  0  0  0
    4.8047  -11.0366   25.4583 N   0  0  0  0  0  0  0  0  0  0  0  0
    4.6278  -10.9310   26.9033 C   0  0  0  0  0  0  0  0  0  0  0  0
    3.3142  -11.6428   27.2862 C   0  0  0  0  0  0  0  0  0  0  0  0
    3.1661  -13.0344   26.7956 N   0  0  0  0  0  0  0  0  0  0  0  0
    1.7323  -13.4180   26.9491 C   0  0  0  0  0  0  0  0  0  0  0  0
    1.3267  -14.6871   26.3000 C   0  0  0  0  0  0  0  0  0  0  0  0
    0.9584  -15.6251   25.7189 N   0  0  0  0  0  0  0  0  0  0  0  0
    3.5950  -13.1490   25.3857 C   0  0  0  0  0  0  0  0  0  0  0  0
    4.9239  -12.4335   25.0623 C   0  0  0  0  0  0  0  0  0  0  0  0
  1  2  1  0
  2  3  3  0
  3  4  1  0
  4  5  1  0
  5  6  1  0
  6  7  1  0
  7  8  1  0
  8  9  1  0
  9 10  1  0
 10 11  1  0
 11 12  3  0
  9 13  1  0
 13 14  1  0
 14  6  1  0
M  END
>  <inchikey>  (1258) 
JZLMJEVQZXTTDN-UHFFFAOYSA-N

>  <tags>  (1258) 
fragmenstein_placed,CpKRS_FrAncestor_bulkdock_iter2

>  <ref_pdb>  (1258) 
x0646a

>  <energy_score>  (1258) 
-25.46917

>  <distance_score>  (1258) 
0.545188

>  <HIPPO Pose ID>  (1258) 
59166

>  <ref_mols>  (1258) 
x0414b

>  <smiles>  (1258) 
CC#CCCN1CCN(CC#N)CC1

>  <HIPPO Compound ID>  (1258) 
387283

>  <alias>  (1258) 
JZLMJEVQZXTTDN-UHFFFAOYSA-N-P7

>  <subsites>  (1258) 


>  <placement_batch>  (1258) 
CpKRS_FrAncestor_bulkdock_iter2

>  <name>  (1258) 
JZLMJEVQZXTTDN-UHFFFAOYSA-N-P7

$$$$
ACQNTBZOJVQWKE-UHFFFAOYSA-N-P6
     RDKit          3D

 17 17  0  0  0  0  0  0  0  0999 V2000
   -1.0145  -15.1415   22.6668 C   0  0  0  0  0  0  0  0  0  0  0  0
    0.2820  -14.3501   22.6383 C   0  0  0  0  0  0  0  0  0  0  0  0
    0.9267  -14.3387   23.9578 C   0  0  0  0  0  0  0  0  0  0  0  0
    1.4456  -14.3233   25.0417 C   0  0  0  0  0  0  0  0  0  0  0  0
    2.0590  -14.3033   26.3822 C   0  0  0  0  0  0  0  0  0  0  0  0
    3.0051  -13.2087   26.5900 N   0  0  0  0  0  0  0  0  0  0  0  0
    2.4230  -11.8789   26.4517 C   0  0  0  0  0  0  0  0  0  0  0  0
    3.4323  -10.7381   26.6915 C   0  0  0  0  0  0  0  0  0  0  0  0
    4.7737  -10.9266   26.1103 N   0  0  0  0  0  0  0  0  0  0  0  0
    5.4149   -9.6983   25.5897 C   0  0  2  0  0  0  0  0  0  0  0  0
    5.1594   -8.4943   26.4396 C   0  0  0  0  0  0  0  0  0  0  0  0
    4.9994   -7.5434   27.0876 N   0  0  0  0  0  0  0  0  0  0  0  0
    5.1844   -9.3767   24.0798 C   0  0  0  0  0  0  0  0  0  0  0  0
    5.9525   -8.1237   23.6309 C   0  0  0  0  0  0  0  0  0  0  0  0
    3.7102   -9.2423   23.7040 C   0  0  0  0  0  0  0  0  0  0  0  0
    4.8615  -12.1069   25.2553 C   0  0  0  0  0  0  0  0  0  0  0  0
    4.2758  -13.3853   25.8903 C   0  0  0  0  0  0  0  0  0  0  0  0
  1  2  1  0
  2  3  1  0
  3  4  3  0
  4  5  1  0
  5  6  1  0
  6  7  1  0
  7  8  1  0
  8  9  1  0
  9 10  1  0
 10 11  1  1
 11 12  3  0
 10 13  1  0
 13 14  1  0
 13 15  1  0
  9 16  1  0
 16 17  1  0
 17  6  1  0
M  END
>  <inchikey>  (1259) 
ACQNTBZOJVQWKE-UHFFFAOYSA-N

>  <tags>  (1259) 
fragmenstein_placed,CpKRS_FrAncestor_bulkdock_iter2

>  <ref_pdb>  (1259) 
x0646a

>  <energy_score>  (1259) 
-44.548084

>  <distance_score>  (1259) 
0.64071

>  <HIPPO Pose ID>  (1259) 
59169

>  <ref_mols>  (1259) 
x0414a

>  <smiles>  (1259) 
CCC#CCN1CCN(C(C#N)C(C)C)CC1

>  <HIPPO Compound ID>  (1259) 
242314

>  <alias>  (1259) 
ACQNTBZOJVQWKE-UHFFFAOYSA-N-P6

>  <subsites>  (1259) 


>  <placement_batch>  (1259) 
CpKRS_FrAncestor_bulkdock_iter2

>  <name>  (1259) 
ACQNTBZOJVQWKE-UHFFFAOYSA-N-P6

$$$$
WZJMPPMGJBIYPP-UHFFFAOYSA-N-P7
     RDKit          3D

 14 14  0  0  0  0  0  0  0  0999 V2000
   -2.3681  -13.9660   24.8662 C   0  0  0  0  0  0  0  0  0  0  0  0
   -1.3822  -14.1609   25.5234 C   0  0  0  0  0  0  0  0  0  0  0  0
   -0.1773  -14.4002   26.3325 C   0  0  0  0  0  0  0  0  0  0  0  0
    0.9445  -13.4306   25.9827 C   0  0  0  0  0  0  0  0  0  0  0  0
    2.1912  -13.7334   26.8346 C   0  0  0  0  0  0  0  0  0  0  0  0
    3.3925  -12.9151   26.6002 N   0  0  0  0  0  0  0  0  0  0  0  0
    3.1513  -11.5035   26.9279 C   0  0  0  0  0  0  0  0  0  0  0  0
    4.3339  -10.5760   26.5895 C   0  0  0  0  0  0  0  0  0  0  0  0
    4.6646  -10.7057   25.1535 N   0  0  0  0  0  0  0  0  0  0  0  0
    5.6824   -9.7510   24.7040 C   0  0  0  0  0  0  0  0  0  0  0  0
    5.0449   -8.3607   24.5244 C   0  0  0  0  0  0  0  0  0  0  0  0
    3.7912   -8.4943   23.8257 O   0  0  0  0  0  0  0  0  0  0  0  0
    5.0651  -12.1056   24.9131 C   0  0  0  0  0  0  0  0  0  0  0  0
    3.9095  -13.0734   25.2356 C   0  0  0  0  0  0  0  0  0  0  0  0
  1  2  3  0
  2  3  1  0
  3  4  1  0
  4  5  1  0
  5  6  1  0
  6  7  1  0
  7  8  1  0
  8  9  1  0
  9 10  1  0
 10 11  1  0
 11 12  1  0
  9 13  1  0
 13 14  1  0
 14  6  1  0
M  END
>  <inchikey>  (1260) 
WZJMPPMGJBIYPP-UHFFFAOYSA-N

>  <tags>  (1260) 
fragmenstein_placed,CpKRS_FrAncestor_bulkdock_iter2

>  <ref_pdb>  (1260) 
x0646a

>  <energy_score>  (1260) 
-24.646581

>  <distance_score>  (1260) 
0.576223

>  <HIPPO Pose ID>  (1260) 
59176

>  <ref_mols>  (1260) 
x0414b

>  <smiles>  (1260) 
C#CCCCN1CCN(CCO)CC1

>  <HIPPO Compound ID>  (1260) 
216519

>  <alias>  (1260) 
WZJMPPMGJBIYPP-UHFFFAOYSA-N-P7

>  <subsites>  (1260) 


>  <placement_batch>  (1260) 
CpKRS_FrAncestor_bulkdock_iter2

>  <name>  (1260) 
WZJMPPMGJBIYPP-UHFFFAOYSA-N-P7

$$$$
TXPAGZCYHXFWQG-UHFFFAOYSA-N-P6
     RDKit          3D

 14 14  0  0  0  0  0  0  0  0999 V2000
   -1.5059  -12.3269   24.4218 C   0  0  0  0  0  0  0  0  0  0  0  0
   -0.3535  -12.8533   25.1533 C   0  0  0  0  0  0  0  0  0  0  0  0
    0.6123  -13.2671   25.7371 C   0  0  0  0  0  0  0  0  0  0  0  0
    1.8174  -13.7602   26.4461 C   0  0  1  0  0  0  0  0  0  0  0  0
    2.1116  -15.1969   25.9921 C   0  0  0  0  0  0  0  0  0  0  0  0
    2.9835  -12.8717   26.3036 N   0  0  0  0  0  0  0  0  0  0  0  0
    2.7477  -11.5079   26.7979 C   0  0  0  0  0  0  0  0  0  0  0  0
    3.9874  -10.5789   26.7201 C   0  0  0  0  0  0  0  0  0  0  0  0
    4.9680  -10.9020   25.6625 N   0  0  0  0  0  0  0  0  0  0  0  0
    5.7581   -9.7314   25.2751 C   0  0  0  0  0  0  0  0  0  0  0  0
    5.2515   -8.8547   24.1188 C   0  0  0  0  0  0  0  0  0  0  0  0
    6.1581   -7.7865   23.8504 O   0  0  0  0  0  0  0  0  0  0  0  0
    4.3186  -11.5929   24.5504 C   0  0  0  0  0  0  0  0  0  0  0  0
    3.6129  -12.8978   24.9801 C   0  0  0  0  0  0  0  0  0  0  0  0
  1  2  1  0
  2  3  3  0
  3  4  1  0
  4  5  1  6
  4  6  1  0
  6  7  1  0
  7  8  1  0
  8  9  1  0
  9 10  1  0
 10 11  1  0
 11 12  1  0
  9 13  1  0
 13 14  1  0
 14  6  1  0
M  END
>  <inchikey>  (1261) 
TXPAGZCYHXFWQG-UHFFFAOYSA-N

>  <tags>  (1261) 
fragmenstein_placed,CpKRS_FrAncestor_bulkdock_iter2

>  <ref_pdb>  (1261) 
x0646a

>  <energy_score>  (1261) 
-33.07134

>  <distance_score>  (1261) 
0.59614

>  <HIPPO Pose ID>  (1261) 
59177

>  <ref_mols>  (1261) 
x0414a

>  <smiles>  (1261) 
CC#CC(C)N1CCN(CCO)CC1

>  <HIPPO Compound ID>  (1261) 
387135

>  <alias>  (1261) 
TXPAGZCYHXFWQG-UHFFFAOYSA-N-P6

>  <subsites>  (1261) 


>  <placement_batch>  (1261) 
CpKRS_FrAncestor_bulkdock_iter2

>  <name>  (1261) 
TXPAGZCYHXFWQG-UHFFFAOYSA-N-P6

$$$$
KPCWSXZFMCLXQG-UHFFFAOYSA-N-P7
     RDKit          3D

 14 14  0  0  0  0  0  0  0  0999 V2000
    3.9733  -18.0238   25.0762 C   0  0  0  0  0  0  0  0  0  0  0  0
    2.5251  -17.6176   24.8596 C   0  0  0  0  0  0  0  0  0  0  0  0
    2.2496  -16.3402   25.5289 C   0  0  0  0  0  0  0  0  0  0  0  0
    2.1057  -15.2649   26.0451 C   0  0  0  0  0  0  0  0  0  0  0  0
    2.0011  -13.8999   26.5868 C   0  0  0  0  0  0  0  0  0  0  0  0
    3.2712  -13.1448   26.4775 N   0  0  0  0  0  0  0  0  0  0  0  0
    3.0248  -11.7620   26.9421 C   0  0  0  0  0  0  0  0  0  0  0  0
    4.1777  -10.7739   26.6527 C   0  0  0  0  0  0  0  0  0  0  0  0
    4.5085  -10.7695   25.2094 N   0  0  0  0  0  0  0  0  0  0  0  0
    5.5477   -9.7913   24.8603 C   0  0  0  0  0  0  0  0  0  0  0  0
    4.9101   -8.3995   24.7052 C   0  0  0  0  0  0  0  0  0  0  0  0
    3.7211   -8.5069   23.8978 O   0  0  0  0  0  0  0  0  0  0  0  0
    4.9035  -12.1399   24.8407 C   0  0  0  0  0  0  0  0  0  0  0  0
    3.7457  -13.1260   25.0802 C   0  0  0  0  0  0  0  0  0  0  0  0
  1  2  1  0
  2  3  1  0
  3  4  3  0
  4  5  1  0
  5  6  1  0
  6  7  1  0
  7  8  1  0
  8  9  1  0
  9 10  1  0
 10 11  1  0
 11 12  1  0
  9 13  1  0
 13 14  1  0
 14  6  1  0
M  END
>  <inchikey>  (1262) 
KPCWSXZFMCLXQG-UHFFFAOYSA-N

>  <tags>  (1262) 
fragmenstein_placed,CpKRS_FrAncestor_bulkdock_iter2

>  <ref_pdb>  (1262) 
x0646a

>  <energy_score>  (1262) 
-33.669788

>  <distance_score>  (1262) 
0.65082

>  <HIPPO Pose ID>  (1262) 
59180

>  <ref_mols>  (1262) 
x0414b

>  <smiles>  (1262) 
CCC#CCN1CCN(CCO)CC1

>  <HIPPO Compound ID>  (1262) 
387136

>  <alias>  (1262) 
KPCWSXZFMCLXQG-UHFFFAOYSA-N-P7

>  <subsites>  (1262) 


>  <placement_batch>  (1262) 
CpKRS_FrAncestor_bulkdock_iter2

>  <name>  (1262) 
KPCWSXZFMCLXQG-UHFFFAOYSA-N-P7

$$$$
ZCMBLEMLABBUEJ-UHFFFAOYSA-N-P7
     RDKit          3D

 15 15  0  0  0  0  0  0  0  0999 V2000
    0.5158  -13.0524   23.7523 C   0  0  0  0  0  0  0  0  0  0  0  0
    1.0140  -13.4950   24.7527 C   0  0  0  0  0  0  0  0  0  0  0  0
    1.6435  -14.0469   25.9906 C   0  0  0  0  0  0  0  0  0  0  0  0
    1.9050  -15.5510   25.7482 C   0  0  0  0  0  0  0  0  0  0  0  0
    0.5937  -13.9361   27.1197 C   0  0  0  0  0  0  0  0  0  0  0  0
    2.9238  -13.3492   26.3439 N   0  0  0  0  0  0  0  0  0  0  0  0
    3.9400  -13.4577   25.2765 C   0  0  0  0  0  0  0  0  0  0  0  0
    5.0895  -12.4278   25.2936 C   0  0  0  0  0  0  0  0  0  0  0  0
    4.5546  -11.0782   25.4650 N   0  0  0  0  0  0  0  0  0  0  0  0
    5.4871  -10.0045   25.1456 C   0  0  0  0  0  0  0  0  0  0  0  0
    4.7940   -8.6388   24.9038 C   0  0  0  0  0  0  0  0  0  0  0  0
    3.9735   -8.5552   23.7211 O   0  0  0  0  0  0  0  0  0  0  0  0
    2.8771   -9.4628   23.7199 C   0  0  0  0  0  0  0  0  0  0  0  0
    3.9291  -11.0201   26.7898 C   0  0  0  0  0  0  0  0  0  0  0  0
    2.7020  -11.9576   26.7924 C   0  0  0  0  0  0  0  0  0  0  0  0
  1  2  3  0
  2  3  1  0
  3  4  1  0
  3  5  1  0
  3  6  1  0
  6  7  1  0
  7  8  1  0
  8  9  1  0
  9 10  1  0
 10 11  1  0
 11 12  1  0
 12 13  1  0
  9 14  1  0
 14 15  1  0
 15  6  1  0
M  END
>  <inchikey>  (1263) 
ZCMBLEMLABBUEJ-UHFFFAOYSA-N

>  <tags>  (1263) 
fragmenstein_placed,CpKRS_FrAncestor_bulkdock_iter2

>  <ref_pdb>  (1263) 
x0646a

>  <energy_score>  (1263) 
-29.610164

>  <distance_score>  (1263) 
0.734483

>  <HIPPO Pose ID>  (1263) 
59182

>  <ref_mols>  (1263) 
x0414b

>  <smiles>  (1263) 
C#CC(C)(C)N1CCN(CCOC)CC1

>  <HIPPO Compound ID>  (1263) 
162562

>  <alias>  (1263) 
ZCMBLEMLABBUEJ-UHFFFAOYSA-N-P7

>  <subsites>  (1263) 


>  <placement_batch>  (1263) 
CpKRS_FrAncestor_bulkdock_iter2

>  <name>  (1263) 
ZCMBLEMLABBUEJ-UHFFFAOYSA-N-P7

$$$$
KAACSNZDFNFSGA-UHFFFAOYSA-N-P38
     RDKit          3D

 15 15  0  0  0  0  0  0  0  0999 V2000
    3.3379   -9.1220   23.3544 C   0  0  0  0  0  0  0  0  0  0  0  0
    4.7015   -9.6872   22.9353 C   0  0  0  0  0  0  0  0  0  0  0  0
    5.6656   -9.4340   24.0998 C   0  0  0  0  0  0  0  0  0  0  0  0
    5.2297   -8.9388   21.7027 C   0  0  0  0  0  0  0  0  0  0  0  0
    4.5993  -11.1888   22.5797 C   0  0  0  0  0  0  0  0  0  0  0  0
    3.8958  -11.9529   23.5746 N   0  0  0  0  0  0  0  0  0  0  0  0
    4.4058  -13.0129   24.5662 C   0  0  0  0  0  0  0  0  0  0  0  0
    5.4885  -13.3801   24.7872 O   0  0  0  0  0  0  0  0  0  0  0  0
    3.3224  -13.5841   25.4526 C   0  0  0  0  0  0  0  0  0  0  0  0
    1.9986  -13.1491   25.5049 C   0  0  0  0  0  0  0  0  0  0  0  0
    1.0690  -13.5838   26.3989 N   0  0  0  0  0  0  0  0  0  0  0  0
    1.4923  -14.4982   27.2950 C   0  0  0  0  0  0  0  0  0  0  0  0
    2.7735  -15.0139   27.3200 C   0  0  0  0  0  0  0  0  0  0  0  0
    3.2659  -16.2265   28.6638 Br  0  0  0  0  0  0  0  0  0  0  0  0
    3.6936  -14.5658   26.3827 C   0  0  0  0  0  0  0  0  0  0  0  0
  1  2  1  0
  2  3  1  0
  2  4  1  0
  2  5  1  0
  5  6  1  0
  6  7  1  0
  7  8  2  0
  7  9  1  0
  9 10  2  0
 10 11  1  0
 11 12  2  0
 12 13  1  0
 13 14  1  0
 13 15  2  0
 15  9  1  0
M  END
>  <inchikey>  (1264) 
KAACSNZDFNFSGA-UHFFFAOYSA-N

>  <tags>  (1264) 
fragmenstein_placed,CpKRS_FrAncestor_bulkdock_iter2

>  <ref_pdb>  (1264) 
x0646a

>  <energy_score>  (1264) 
-11.29858

>  <distance_score>  (1264) 
0.383778

>  <HIPPO Pose ID>  (1264) 
59235

>  <ref_mols>  (1264) 
x0555a

>  <smiles>  (1264) 
CC(C)(C)CNC(=O)c1cncc(Br)c1

>  <HIPPO Compound ID>  (1264) 
314263

>  <alias>  (1264) 
KAACSNZDFNFSGA-UHFFFAOYSA-N-P38

>  <subsites>  (1264) 


>  <placement_batch>  (1264) 
CpKRS_FrAncestor_bulkdock_iter2

>  <name>  (1264) 
KAACSNZDFNFSGA-UHFFFAOYSA-N-P38

$$$$
WVLQDXRHZGMENH-UHFFFAOYSA-N-P38
     RDKit          3D

 15 15  0  0  0  0  0  0  0  0999 V2000
    3.2380   -9.2764   23.3403 C   0  0  0  0  0  0  0  0  0  0  0  0
    4.6299   -9.7830   22.9353 C   0  0  0  0  0  0  0  0  0  0  0  0
    5.5896   -9.4397   24.0812 C   0  0  0  0  0  0  0  0  0  0  0  0
    5.1216   -9.0542   21.6745 C   0  0  0  0  0  0  0  0  0  0  0  0
    4.5955  -11.3018   22.6365 C   0  0  0  0  0  0  0  0  0  0  0  0
    3.9123  -12.0650   23.6491 N   0  0  0  0  0  0  0  0  0  0  0  0
    4.4486  -13.1057   24.6493 C   0  0  0  0  0  0  0  0  0  0  0  0
    5.5391  -13.4537   24.8641 O   0  0  0  0  0  0  0  0  0  0  0  0
    3.3844  -13.6845   25.5559 C   0  0  0  0  0  0  0  0  0  0  0  0
    2.0692  -13.2308   25.6551 C   0  0  0  0  0  0  0  0  0  0  0  0
    1.1572  -13.6738   26.5639 N   0  0  0  0  0  0  0  0  0  0  0  0
    1.5943  -14.6133   27.4297 C   0  0  0  0  0  0  0  0  0  0  0  0
    2.8705  -15.1447   27.4145 C   0  0  0  0  0  0  0  0  0  0  0  0
    3.3339  -16.2767   28.6127 Cl  0  0  0  0  0  0  0  0  0  0  0  0
    3.7695  -14.6875   26.4599 C   0  0  0  0  0  0  0  0  0  0  0  0
  1  2  1  0
  2  3  1  0
  2  4  1  0
  2  5  1  0
  5  6  1  0
  6  7  1  0
  7  8  2  0
  7  9  1  0
  9 10  2  0
 10 11  1  0
 11 12  2  0
 12 13  1  0
 13 14  1  0
 13 15  2  0
 15  9  1  0
M  END
>  <inchikey>  (1265) 
WVLQDXRHZGMENH-UHFFFAOYSA-N

>  <tags>  (1265) 
fragmenstein_placed,CpKRS_FrAncestor_bulkdock_iter2

>  <ref_pdb>  (1265) 
x0646a

>  <energy_score>  (1265) 
-2.745882

>  <distance_score>  (1265) 
0.404262

>  <HIPPO Pose ID>  (1265) 
59236

>  <ref_mols>  (1265) 
x0555a

>  <smiles>  (1265) 
CC(C)(C)CNC(=O)c1cncc(Cl)c1

>  <HIPPO Compound ID>  (1265) 
314267

>  <alias>  (1265) 
WVLQDXRHZGMENH-UHFFFAOYSA-N-P38

>  <subsites>  (1265) 


>  <placement_batch>  (1265) 
CpKRS_FrAncestor_bulkdock_iter2

>  <name>  (1265) 
WVLQDXRHZGMENH-UHFFFAOYSA-N-P38

$$$$
DMWVOJRMSJHCKV-UHFFFAOYSA-N-P47
     RDKit          3D

 16 16  0  0  0  0  0  0  0  0999 V2000
    4.7723    9.5490   40.5451 C   0  0  0  0  0  0  0  0  0  0  0  0
    3.7378    8.4070   40.5892 C   0  0  0  0  0  0  0  0  0  0  0  0
    2.5252    8.8161   39.7370 C   0  0  0  0  0  0  0  0  0  0  0  0
    4.4038    7.1564   39.9910 C   0  0  0  0  0  0  0  0  0  0  0  0
    3.3212    8.1603   42.0552 C   0  0  0  0  0  0  0  0  0  0  0  0
    4.4206    7.7919   42.7738 F   0  0  0  0  0  0  0  0  0  0  0  0
    2.9239    9.3563   42.5861 F   0  0  0  0  0  0  0  0  0  0  0  0
    2.1796    7.1567   42.2994 C   0  0  0  0  0  0  0  0  0  0  0  0
    2.4176    6.2513   43.4042 N   0  0  0  0  0  0  0  0  0  0  0  0
    3.1783    4.9222   43.4561 C   0  0  0  0  0  0  0  0  0  0  0  0
    3.8013    4.3778   42.6388 O   0  0  0  0  0  0  0  0  0  0  0  0
    3.0661    4.3330   44.7762 C   0  0  0  0  0  0  0  0  0  0  0  0
    3.6239    3.1853   45.2936 C   0  0  0  0  0  0  0  0  0  0  0  0
    3.2429    3.0137   46.5977 N   0  0  0  0  0  0  0  0  0  0  0  0
    2.4732    4.0544   46.8279 C   0  0  0  0  0  0  0  0  0  0  0  0
    2.3143    4.9065   45.7736 O   0  0  0  0  0  0  0  0  0  0  0  0
  1  2  1  0
  2  3  1  0
  2  4  1  0
  2  5  1  0
  5  6  1  0
  5  7  1  0
  5  8  1  0
  8  9  1  0
  9 10  1  0
 10 11  2  0
 10 12  1  0
 12 13  2  0
 13 14  1  0
 14 15  2  0
 15 16  1  0
 16 12  1  0
M  END
>  <inchikey>  (1266) 
DMWVOJRMSJHCKV-UHFFFAOYSA-N

>  <tags>  (1266) 
fragmenstein_placed,CpKRS_FrAncestor_bulkdock_iter2

>  <ref_pdb>  (1266) 
x0646a

>  <energy_score>  (1266) 
-10.998702

>  <distance_score>  (1266) 
0.397333

>  <HIPPO Pose ID>  (1266) 
59301

>  <ref_mols>  (1266) 
x0504c

>  <smiles>  (1266) 
CC(C)(C)C(F)(F)CNC(=O)c1cnco1

>  <HIPPO Compound ID>  (1266) 
446465

>  <alias>  (1266) 
DMWVOJRMSJHCKV-UHFFFAOYSA-N-P47

>  <subsites>  (1266) 


>  <placement_batch>  (1266) 
CpKRS_FrAncestor_bulkdock_iter2

>  <name>  (1266) 
DMWVOJRMSJHCKV-UHFFFAOYSA-N-P47

$$$$
IPBNCLYDXAMOSA-UHFFFAOYSA-N-P40
     RDKit          3D

 17 17  0  0  0  0  0  0  0  0999 V2000
    0.9998  -11.2050   24.2031 C   0  0  0  0  0  0  0  0  0  0  0  0
    1.0332   -9.6992   24.0006 C   0  0  0  0  0  0  0  0  0  0  0  0
    2.3830   -9.2404   23.6377 C   0  0  0  0  0  0  0  0  0  0  0  0
    3.4763   -8.9102   23.2547 C   0  0  0  0  0  0  0  0  0  0  0  0
    4.8172   -8.6085   22.6869 C   0  0  0  0  0  0  0  0  0  0  0  0
    5.8430   -9.4530   23.2614 N   0  0  0  0  0  0  0  0  0  0  0  0
    5.4364  -10.7703   23.5223 C   0  0  0  0  0  0  0  0  0  0  0  0
    4.9291  -11.6001   22.5227 C   0  0  0  0  0  0  0  0  0  0  0  0
    4.4483  -12.8702   22.8423 C   0  0  0  0  0  0  0  0  0  0  0  0
    4.5165  -13.3553   24.1490 C   0  0  0  0  0  0  0  0  0  0  0  0
    4.1090  -14.6715   24.3659 N   0  0  0  0  0  0  0  0  0  0  0  0
    4.5774  -15.7147   25.4271 C   0  0  0  0  0  0  0  0  0  0  0  0
    3.6456  -16.9023   25.3657 C   0  0  0  0  0  0  0  0  0  0  0  0
    5.4285  -15.6517   26.2277 O   0  0  0  0  0  0  0  0  0  0  0  0
    4.9528  -12.5034   25.1653 C   0  0  0  0  0  0  0  0  0  0  0  0
    4.9005  -12.8580   26.6110 C   0  0  0  0  0  0  0  0  0  0  0  0
    5.4295  -11.2268   24.8392 C   0  0  0  0  0  0  0  0  0  0  0  0
  1  2  1  0
  2  3  1  0
  3  4  3  0
  4  5  1  0
  5  6  1  0
  6  7  1  0
  7  8  2  0
  8  9  1  0
  9 10  2  0
 10 11  1  0
 11 12  1  0
 12 13  1  0
 12 14  2  0
 10 15  1  0
 15 16  1  0
 15 17  2  0
 17  7  1  0
M  END
>  <inchikey>  (1267) 
IPBNCLYDXAMOSA-UHFFFAOYSA-N

>  <tags>  (1267) 
fragmenstein_placed,CpKRS_FrAncestor_bulkdock_iter2

>  <ref_pdb>  (1267) 
x0646a

>  <energy_score>  (1267) 
-5.741988

>  <distance_score>  (1267) 
0.885904

>  <HIPPO Pose ID>  (1267) 
59348

>  <ref_mols>  (1267) 
x0602b

>  <smiles>  (1267) 
CCC#CCNc1ccc(NC(C)=O)c(C)c1

>  <HIPPO Compound ID>  (1267) 
230872

>  <alias>  (1267) 
IPBNCLYDXAMOSA-UHFFFAOYSA-N-P40

>  <subsites>  (1267) 


>  <placement_batch>  (1267) 
CpKRS_FrAncestor_bulkdock_iter2

>  <name>  (1267) 
IPBNCLYDXAMOSA-UHFFFAOYSA-N-P40

$$$$
SIXWBCJYDILVLF-UHFFFAOYSA-N-P40
     RDKit          3D

 16 16  0  0  0  0  0  0  0  0999 V2000
    0.8870  -17.5414   25.4196 C   0  0  0  0  0  0  0  0  0  0  0  0
    0.9960  -16.3498   25.5008 C   0  0  0  0  0  0  0  0  0  0  0  0
    1.2939  -14.9075   25.6645 C   0  0  0  0  0  0  0  0  0  0  0  0
    0.9257  -14.1674   24.3682 C   0  0  0  0  0  0  0  0  0  0  0  0
    0.4072  -14.3820   26.8014 C   0  0  0  0  0  0  0  0  0  0  0  0
    2.8432  -14.7668   25.9303 C   0  0  0  0  0  0  0  0  0  0  0  0
    3.5585  -15.6896   25.9163 O   0  0  0  0  0  0  0  0  0  0  0  0
    3.1555  -13.2574   26.0837 N   0  0  0  0  0  0  0  0  0  0  0  0
    4.4096  -12.5701   26.1555 C   0  0  0  0  0  0  0  0  0  0  0  0
    4.6754  -11.9064   24.8325 C   0  0  0  0  0  0  0  0  0  0  0  0
    4.5509  -12.6266   23.6343 C   0  0  0  0  0  0  0  0  0  0  0  0
    4.7342  -11.9936   22.4102 C   0  0  0  0  0  0  0  0  0  0  0  0
    5.0869  -10.6485   22.3663 C   0  0  0  0  0  0  0  0  0  0  0  0
    5.3066   -9.9381   23.5467 C   0  0  0  0  0  0  0  0  0  0  0  0
    5.5763   -8.5612   23.4957 N   0  0  0  0  0  0  0  0  0  0  0  0
    5.0480  -10.5574   24.7733 C   0  0  0  0  0  0  0  0  0  0  0  0
  1  2  3  0
  2  3  1  0
  3  4  1  0
  3  5  1  0
  3  6  1  0
  6  7  2  0
  6  8  1  0
  8  9  1  0
  9 10  1  0
 10 11  2  0
 11 12  1  0
 12 13  2  0
 13 14  1  0
 14 15  1  0
 14 16  2  0
 16 10  1  0
M  END
>  <inchikey>  (1268) 
SIXWBCJYDILVLF-UHFFFAOYSA-N

>  <tags>  (1268) 
fragmenstein_placed,CpKRS_FrAncestor_bulkdock_iter2

>  <ref_pdb>  (1268) 
x0646a

>  <energy_score>  (1268) 
-1.617576

>  <distance_score>  (1268) 
0.670464

>  <HIPPO Pose ID>  (1268) 
59374

>  <ref_mols>  (1268) 
x0602b

>  <smiles>  (1268) 
C#CC(C)(C)C(=O)NCc1cccc(N)c1

>  <HIPPO Compound ID>  (1268) 
446485

>  <alias>  (1268) 
SIXWBCJYDILVLF-UHFFFAOYSA-N-P40

>  <subsites>  (1268) 


>  <placement_batch>  (1268) 
CpKRS_FrAncestor_bulkdock_iter2

>  <name>  (1268) 
SIXWBCJYDILVLF-UHFFFAOYSA-N-P40

$$$$
UMIYFISMYQEUBL-UHFFFAOYSA-N-P40
     RDKit          3D

 16 16  0  0  0  0  0  0  0  0999 V2000
   -0.6878  -14.6795   24.8780 C   0  0  0  0  0  0  0  0  0  0  0  0
    0.8036  -14.4949   24.7781 C   0  0  0  0  0  0  0  0  0  0  0  0
    1.1827  -13.3803   23.8349 C   0  0  0  0  0  0  0  0  0  0  0  0
    1.6911  -15.2873   25.4309 C   0  0  0  0  0  0  0  0  0  0  0  0
    1.3075  -16.5346   26.1620 C   0  0  0  0  0  0  0  0  0  0  0  0
    3.1852  -15.0760   25.4194 C   0  0  0  0  0  0  0  0  0  0  0  0
    3.9289  -15.9235   25.1362 O   0  0  0  0  0  0  0  0  0  0  0  0
    3.4463  -13.6278   25.8575 N   0  0  0  0  0  0  0  0  0  0  0  0
    4.6700  -12.8899   25.9486 C   0  0  0  0  0  0  0  0  0  0  0  0
    4.8427  -12.0570   24.7067 C   0  0  0  0  0  0  0  0  0  0  0  0
    4.7550  -12.6534   23.4398 C   0  0  0  0  0  0  0  0  0  0  0  0
    4.8616  -11.8873   22.2850 C   0  0  0  0  0  0  0  0  0  0  0  0
    5.1120  -10.5236   22.3771 C   0  0  0  0  0  0  0  0  0  0  0  0
    5.2979   -9.9249   23.6236 C   0  0  0  0  0  0  0  0  0  0  0  0
    5.4804   -8.5336   23.7059 N   0  0  0  0  0  0  0  0  0  0  0  0
    5.1016  -10.6824   24.7842 C   0  0  0  0  0  0  0  0  0  0  0  0
  1  2  1  0
  2  3  1  0
  2  4  2  3
  4  5  1  0
  4  6  1  0
  6  7  2  0
  6  8  1  0
  8  9  1  0
  9 10  1  0
 10 11  2  0
 11 12  1  0
 12 13  2  0
 13 14  1  0
 14 15  1  0
 14 16  2  0
 16 10  1  0
M  END
>  <inchikey>  (1269) 
UMIYFISMYQEUBL-UHFFFAOYSA-N

>  <tags>  (1269) 
fragmenstein_placed,CpKRS_FrAncestor_bulkdock_iter2

>  <ref_pdb>  (1269) 
x0646a

>  <energy_score>  (1269) 
-24.341743

>  <distance_score>  (1269) 
0.559373

>  <HIPPO Pose ID>  (1269) 
59378

>  <ref_mols>  (1269) 
x0602b

>  <smiles>  (1269) 
CC(C)=C(C)C(=O)NCc1cccc(N)c1

>  <HIPPO Compound ID>  (1269) 
446487

>  <alias>  (1269) 
UMIYFISMYQEUBL-UHFFFAOYSA-N-P40

>  <subsites>  (1269) 


>  <placement_batch>  (1269) 
CpKRS_FrAncestor_bulkdock_iter2

>  <name>  (1269) 
UMIYFISMYQEUBL-UHFFFAOYSA-N-P40

$$$$
NLAURMPKOBUPCZ-UHFFFAOYSA-N-P40
     RDKit          3D

 16 16  0  0  0  0  0  0  0  0999 V2000
   -0.2887  -14.0328   27.1712 C   0  0  0  0  0  0  0  0  0  0  0  0
    0.6421  -14.5058   26.5811 C   0  0  0  0  0  0  0  0  0  0  0  0
    1.6439  -15.1089   25.6734 C   0  0  0  0  0  0  0  0  0  0  0  0
    1.3720  -14.5092   24.2811 C   0  0  0  0  0  0  0  0  0  0  0  0
    1.4298  -16.6288   25.6690 C   0  0  0  0  0  0  0  0  0  0  0  0
    3.1366  -14.8126   26.0017 C   0  0  0  0  0  0  0  0  0  0  0  0
    3.9493  -15.6508   26.0257 O   0  0  0  0  0  0  0  0  0  0  0  0
    3.2731  -13.2785   26.1590 N   0  0  0  0  0  0  0  0  0  0  0  0
    4.4401  -12.4560   26.2821 C   0  0  0  0  0  0  0  0  0  0  0  0
    4.7156  -11.8224   24.9354 C   0  0  0  0  0  0  0  0  0  0  0  0
    5.2091  -10.5397   24.8435 C   0  0  0  0  0  0  0  0  0  0  0  0
    5.3428  -10.0222   23.5675 C   0  0  0  0  0  0  0  0  0  0  0  0
    5.8336   -8.6207   23.3805 C   0  0  0  0  0  0  0  0  0  0  0  0
    5.0220  -10.7174   22.4557 N   0  0  0  0  0  0  0  0  0  0  0  0
    4.6116  -11.9785   22.6426 C   0  0  0  0  0  0  0  0  0  0  0  0
    4.4278  -12.5544   23.8333 N   0  0  0  0  0  0  0  0  0  0  0  0
  1  2  3  0
  2  3  1  0
  3  4  1  0
  3  5  1  0
  3  6  1  0
  6  7  2  0
  6  8  1  0
  8  9  1  0
  9 10  1  0
 10 11  2  0
 11 12  1  0
 12 13  1  0
 12 14  2  0
 14 15  1  0
 15 16  2  0
 16 10  1  0
M  END
>  <inchikey>  (1270) 
NLAURMPKOBUPCZ-UHFFFAOYSA-N

>  <tags>  (1270) 
fragmenstein_placed,CpKRS_FrAncestor_bulkdock_iter2

>  <ref_pdb>  (1270) 
x0646a

>  <energy_score>  (1270) 
-4.603669

>  <distance_score>  (1270) 
0.694689

>  <HIPPO Pose ID>  (1270) 
59384

>  <ref_mols>  (1270) 
x0602b

>  <smiles>  (1270) 
C#CC(C)(C)C(=O)NCc1cc(C)ncn1

>  <HIPPO Compound ID>  (1270) 
446488

>  <alias>  (1270) 
NLAURMPKOBUPCZ-UHFFFAOYSA-N-P40

>  <subsites>  (1270) 


>  <placement_batch>  (1270) 
CpKRS_FrAncestor_bulkdock_iter2

>  <name>  (1270) 
NLAURMPKOBUPCZ-UHFFFAOYSA-N-P40

$$$$
RAIMFUMWMGSZSU-UHFFFAOYSA-N-P39
     RDKit          3D

 16 16  0  0  0  0  0  0  0  0999 V2000
    0.5585  -17.5253   23.2463 C   0  0  0  0  0  0  0  0  0  0  0  0
    1.3023  -16.7808   24.3177 C   0  0  0  0  0  0  0  0  0  0  0  0
    0.6289  -15.5393   24.8304 C   0  0  0  0  0  0  0  0  0  0  0  0
    2.5085  -17.1177   24.6905 C   0  0  0  0  0  0  0  0  0  0  0  0
    3.7171  -17.4346   25.0553 C   0  0  0  0  0  0  0  0  0  0  0  0
    4.7497  -16.4760   25.5579 C   0  0  0  0  0  0  0  0  0  0  0  0
    5.7571  -16.8818   25.9804 O   0  0  0  0  0  0  0  0  0  0  0  0
    4.2487  -15.0323   25.3899 N   0  0  0  0  0  0  0  0  0  0  0  0
    4.8397  -13.7865   25.7920 C   0  0  0  0  0  0  0  0  0  0  0  0
    4.6951  -12.7329   24.7141 C   0  0  0  0  0  0  0  0  0  0  0  0
    5.0637  -11.4206   24.9533 C   0  0  0  0  0  0  0  0  0  0  0  0
    4.9865  -10.5448   23.8827 C   0  0  0  0  0  0  0  0  0  0  0  0
    5.4243   -9.1198   24.0307 C   0  0  0  0  0  0  0  0  0  0  0  0
    4.5562  -10.9253   22.6641 N   0  0  0  0  0  0  0  0  0  0  0  0
    4.2322  -12.2201   22.5293 C   0  0  0  0  0  0  0  0  0  0  0  0
    4.2541  -13.1364   23.5014 N   0  0  0  0  0  0  0  0  0  0  0  0
  1  2  1  0
  2  3  1  0
  2  4  2  0
  4  5  2  0
  5  6  1  0
  6  7  2  0
  6  8  1  0
  8  9  1  0
  9 10  1  0
 10 11  2  0
 11 12  1  0
 12 13  1  0
 12 14  2  0
 14 15  1  0
 15 16  2  0
 16 10  1  0
M  END
>  <inchikey>  (1271) 
RAIMFUMWMGSZSU-UHFFFAOYSA-N

>  <tags>  (1271) 
fragmenstein_placed,CpKRS_FrAncestor_bulkdock_iter2

>  <ref_pdb>  (1271) 
x0646a

>  <energy_score>  (1271) 
-17.887261

>  <distance_score>  (1271) 
0.98111

>  <HIPPO Pose ID>  (1271) 
59385

>  <ref_mols>  (1271) 
x0602a

>  <smiles>  (1271) 
CC(C)=C=CC(=O)NCc1cc(C)ncn1

>  <HIPPO Compound ID>  (1271) 
446489

>  <alias>  (1271) 
RAIMFUMWMGSZSU-UHFFFAOYSA-N-P39

>  <subsites>  (1271) 


>  <placement_batch>  (1271) 
CpKRS_FrAncestor_bulkdock_iter2

>  <name>  (1271) 
RAIMFUMWMGSZSU-UHFFFAOYSA-N-P39

$$$$
CFPNDVOYDLSESJ-UHFFFAOYSA-N-P40
     RDKit          3D

 16 16  0  0  0  0  0  0  0  0999 V2000
    0.5251  -13.6637   23.3737 C   0  0  0  0  0  0  0  0  0  0  0  0
    0.8257  -14.2673   24.3686 C   0  0  0  0  0  0  0  0  0  0  0  0
    1.1917  -14.9541   25.6391 C   0  0  0  0  0  0  0  0  0  0  0  0
    0.8725  -16.4485   25.5305 C   0  0  0  0  0  0  0  0  0  0  0  0
    0.3242  -14.3656   26.7619 C   0  0  0  0  0  0  0  0  0  0  0  0
    2.7282  -14.8156   25.9043 C   0  0  0  0  0  0  0  0  0  0  0  0
    3.4344  -15.7433   25.9508 O   0  0  0  0  0  0  0  0  0  0  0  0
    3.0500  -13.3056   25.9994 N   0  0  0  0  0  0  0  0  0  0  0  0
    4.3107  -12.6246   26.0756 C   0  0  0  0  0  0  0  0  0  0  0  0
    4.6289  -11.9858   24.7480 C   0  0  0  0  0  0  0  0  0  0  0  0
    4.5368  -12.7121   23.5734 C   0  0  0  0  0  0  0  0  0  0  0  0
    4.7744  -12.0190   22.4140 C   0  0  0  0  0  0  0  0  0  0  0  0
    5.1098  -10.7172   22.3844 N   0  0  0  0  0  0  0  0  0  0  0  0
    5.2354  -10.1059   23.5735 C   0  0  0  0  0  0  0  0  0  0  0  0
    5.6973   -8.6848   23.5813 C   0  0  0  0  0  0  0  0  0  0  0  0
    4.9669  -10.6772   24.7628 N   0  0  0  0  0  0  0  0  0  0  0  0
  1  2  3  0
  2  3  1  0
  3  4  1  0
  3  5  1  0
  3  6  1  0
  6  7  2  0
  6  8  1  0
  8  9  1  0
  9 10  1  0
 10 11  2  0
 11 12  1  0
 12 13  2  0
 13 14  1  0
 14 15  1  0
 14 16  2  0
 16 10  1  0
M  END
>  <inchikey>  (1272) 
CFPNDVOYDLSESJ-UHFFFAOYSA-N

>  <tags>  (1272) 
fragmenstein_placed,CpKRS_FrAncestor_bulkdock_iter2

>  <ref_pdb>  (1272) 
x0646a

>  <energy_score>  (1272) 
-2.839047

>  <distance_score>  (1272) 
0.723826

>  <HIPPO Pose ID>  (1272) 
59392

>  <ref_mols>  (1272) 
x0602b

>  <smiles>  (1272) 
C#CC(C)(C)C(=O)NCc1ccnc(C)n1

>  <HIPPO Compound ID>  (1272) 
446492

>  <alias>  (1272) 
CFPNDVOYDLSESJ-UHFFFAOYSA-N-P40

>  <subsites>  (1272) 


>  <placement_batch>  (1272) 
CpKRS_FrAncestor_bulkdock_iter2

>  <name>  (1272) 
CFPNDVOYDLSESJ-UHFFFAOYSA-N-P40

$$$$
URRFLDZADCDMET-UHFFFAOYSA-N-P39
     RDKit          3D

 16 16  0  0  0  0  0  0  0  0999 V2000
   -0.1756  -14.3045   26.4973 C   0  0  0  0  0  0  0  0  0  0  0  0
    0.3569  -15.1408   25.3677 C   0  0  0  0  0  0  0  0  0  0  0  0
   -0.3500  -14.9752   24.0525 C   0  0  0  0  0  0  0  0  0  0  0  0
    1.4248  -15.8828   25.4925 C   0  0  0  0  0  0  0  0  0  0  0  0
    2.5125  -16.5905   25.5980 C   0  0  0  0  0  0  0  0  0  0  0  0
    3.8950  -16.0204   25.5604 C   0  0  0  0  0  0  0  0  0  0  0  0
    4.7992  -16.6997   25.2813 O   0  0  0  0  0  0  0  0  0  0  0  0
    3.8425  -14.5214   25.9058 N   0  0  0  0  0  0  0  0  0  0  0  0
    4.8744  -13.5238   25.8884 C   0  0  0  0  0  0  0  0  0  0  0  0
    4.7698  -12.6023   24.6968 C   0  0  0  0  0  0  0  0  0  0  0  0
    4.4973  -13.1009   23.4366 C   0  0  0  0  0  0  0  0  0  0  0  0
    4.4852  -12.1874   22.4123 C   0  0  0  0  0  0  0  0  0  0  0  0
    4.7259  -10.8741   22.5785 N   0  0  0  0  0  0  0  0  0  0  0  0
    5.0202  -10.4803   23.8278 C   0  0  0  0  0  0  0  0  0  0  0  0
    5.4062   -9.0491   24.0247 C   0  0  0  0  0  0  0  0  0  0  0  0
    5.0389  -11.2903   24.9043 N   0  0  0  0  0  0  0  0  0  0  0  0
  1  2  1  0
  2  3  1  0
  2  4  2  0
  4  5  2  0
  5  6  1  0
  6  7  2  0
  6  8  1  0
  8  9  1  0
  9 10  1  0
 10 11  2  0
 11 12  1  0
 12 13  2  0
 13 14  1  0
 14 15  1  0
 14 16  2  0
 16 10  1  0
M  END
>  <inchikey>  (1273) 
URRFLDZADCDMET-UHFFFAOYSA-N

>  <tags>  (1273) 
fragmenstein_placed,CpKRS_FrAncestor_bulkdock_iter2

>  <ref_pdb>  (1273) 
x0646a

>  <energy_score>  (1273) 
-19.728311

>  <distance_score>  (1273) 
0.618783

>  <HIPPO Pose ID>  (1273) 
59393

>  <ref_mols>  (1273) 
x0602a

>  <smiles>  (1273) 
CC(C)=C=CC(=O)NCc1ccnc(C)n1

>  <HIPPO Compound ID>  (1273) 
446493

>  <alias>  (1273) 
URRFLDZADCDMET-UHFFFAOYSA-N-P39

>  <subsites>  (1273) 


>  <placement_batch>  (1273) 
CpKRS_FrAncestor_bulkdock_iter2

>  <name>  (1273) 
URRFLDZADCDMET-UHFFFAOYSA-N-P39

$$$$
GBJJKGRFBFUCPU-QMMMGPOBSA-N-P15
     RDKit          3D

 17 18  0  0  0  0  0  0  0  0999 V2000
    1.4615  -27.3644   15.7299 C   0  0  0  0  0  0  0  0  0  0  0  0
    1.4216  -25.8911   16.1212 C   0  0  2  0  0  0  0  0  0  0  0  0
    1.5254  -25.0053   14.9776 N   0  0  0  0  0  0  0  0  0  0  0  0
    1.7262  -25.3209   13.4788 C   0  0  0  0  0  0  0  0  0  0  0  0
    1.9166  -26.3378   12.9390 O   0  0  0  0  0  0  0  0  0  0  0  0
    1.5444  -24.1236   12.6168 C   0  0  0  0  0  0  0  0  0  0  0  0
    2.2749  -24.0149   11.4328 C   0  0  0  0  0  0  0  0  0  0  0  0
    2.1644  -22.9789   10.5539 N   0  0  0  0  0  0  0  0  0  0  0  0
    1.2274  -22.0447   10.8608 C   0  0  0  0  0  0  0  0  0  0  0  0
    0.4412  -22.0974   11.9978 C   0  0  0  0  0  0  0  0  0  0  0  0
   -0.4547  -21.1415   12.2568 F   0  0  0  0  0  0  0  0  0  0  0  0
    0.5913  -23.1462   12.8892 C   0  0  0  0  0  0  0  0  0  0  0  0
    2.4484  -25.5169   17.1697 C   0  0  0  0  0  0  0  0  0  0  0  0
    3.4592  -24.5012   17.0615 C   0  0  0  0  0  0  0  0  0  0  0  0
    4.2000  -24.3402   18.2104 C   0  0  0  0  0  0  0  0  0  0  0  0
    3.7293  -25.4380   19.4271 S   0  0  0  0  0  0  0  0  0  0  0  0
    2.5064  -26.0950   18.4297 C   0  0  0  0  0  0  0  0  0  0  0  0
  2  1  1  6
  2  3  1  0
  3  4  1  0
  4  5  2  0
  4  6  1  0
  6  7  2  0
  7  8  1  0
  8  9  2  0
  9 10  1  0
 10 11  1  0
 10 12  2  0
  2 13  1  0
 13 14  1  0
 14 15  2  0
 15 16  1  0
 16 17  1  0
 12  6  1  0
 17 13  2  0
M  END
>  <inchikey>  (1274) 
GBJJKGRFBFUCPU-UHFFFAOYSA-N

>  <tags>  (1274) 
fragmenstein_placed,CpKRS_FrAncestor_bulkdock_iter2

>  <ref_pdb>  (1274) 
x0504a

>  <energy_score>  (1274) 
-5.054475

>  <distance_score>  (1274) 
0.493765

>  <HIPPO Pose ID>  (1274) 
59523

>  <ref_mols>  (1274) 
x0426b

>  <smiles>  (1274) 
C[C@H](NC(=O)c1cncc(F)c1)c1ccsc1

>  <HIPPO Compound ID>  (1274) 
237500

>  <alias>  (1274) 
GBJJKGRFBFUCPU-QMMMGPOBSA-N-P15

>  <subsites>  (1274) 


>  <placement_batch>  (1274) 
CpKRS_FrAncestor_bulkdock_iter2

>  <name>  (1274) 
GBJJKGRFBFUCPU-QMMMGPOBSA-N-P15

$$$$
RQEIHHGBUMGMTJ-QMMMGPOBSA-N-P46
     RDKit          3D

 20 21  0  0  0  0  0  0  0  0999 V2000
    5.0207  -11.7562   21.7014 C   0  0  0  0  0  0  0  0  0  0  0  0
    4.9118  -11.1888   23.0829 C   0  0  2  0  0  0  0  0  0  0  0  0
    4.2960  -12.1958   23.9013 N   0  0  0  0  0  0  0  0  0  0  0  0
    4.8975  -13.1222   24.9579 C   0  0  0  0  0  0  0  0  0  0  0  0
    6.0016  -13.2753   25.2840 O   0  0  0  0  0  0  0  0  0  0  0  0
    3.8388  -13.8165   25.6839 C   0  0  0  0  0  0  0  0  0  0  0  0
    4.0061  -14.9724   26.4310 C   0  0  0  0  0  0  0  0  0  0  0  0
    2.9233  -15.2359   27.2194 N   0  0  0  0  0  0  0  0  0  0  0  0
    2.0812  -14.2541   26.9758 C   0  0  0  0  0  0  0  0  0  0  0  0
    0.8763  -13.8945   27.7318 C   0  0  0  0  0  0  0  0  0  0  0  0
   -0.2705  -13.9864   26.9939 F   0  0  0  0  0  0  0  0  0  0  0  0
    0.6765  -14.6141   28.8600 F   0  0  0  0  0  0  0  0  0  0  0  0
    0.9461  -12.5960   28.0961 F   0  0  0  0  0  0  0  0  0  0  0  0
    2.5350  -13.4394   25.9608 N   0  0  0  0  0  0  0  0  0  0  0  0
    1.7988  -12.3028   25.4468 C   0  0  0  0  0  0  0  0  0  0  0  0
    4.0689   -9.8985   23.1199 C   0  0  0  0  0  0  0  0  0  0  0  0
    4.3974   -9.0758   24.3663 C   0  0  0  0  0  0  0  0  0  0  0  0
    5.6777   -8.3279   24.0043 C   0  0  0  0  0  0  0  0  0  0  0  0
    5.6829   -8.2424   22.4788 C   0  0  0  0  0  0  0  0  0  0  0  0
    4.3843   -8.8794   22.0272 C   0  0  0  0  0  0  0  0  0  0  0  0
  2  1  1  6
  2  3  1  0
  3  4  1  0
  4  5  2  0
  4  6  1  0
  6  7  2  0
  7  8  1  0
  8  9  2  0
  9 10  1  0
 10 11  1  0
 10 12  1  0
 10 13  1  0
  9 14  1  0
 14 15  1  0
  2 16  1  0
 16 17  1  0
 17 18  1  0
 18 19  1  0
 19 20  1  0
 14  6  1  0
 20 16  1  0
M  END
>  <inchikey>  (1275) 
RQEIHHGBUMGMTJ-UHFFFAOYSA-N

>  <tags>  (1275) 
fragmenstein_placed,CpKRS_FrAncestor_bulkdock_iter2

>  <ref_pdb>  (1275) 
x0504a

>  <energy_score>  (1275) 
-3.50961

>  <distance_score>  (1275) 
0.837761

>  <HIPPO Pose ID>  (1275) 
59526

>  <ref_mols>  (1275) 
x0502c

>  <smiles>  (1275) 
C[C@H](NC(=O)c1cnc(C(F)(F)F)n1C)C1CCCC1

>  <HIPPO Compound ID>  (1275) 
451843

>  <alias>  (1275) 
RQEIHHGBUMGMTJ-QMMMGPOBSA-N-P46

>  <subsites>  (1275) 


>  <placement_batch>  (1275) 
CpKRS_FrAncestor_bulkdock_iter2

>  <name>  (1275) 
RQEIHHGBUMGMTJ-QMMMGPOBSA-N-P46

$$$$
DYJMVOVQUMZOAN-ZETCQYMHSA-N-P44
     RDKit          3D

 16 17  0  0  0  0  0  0  0  0999 V2000
  -13.9993  -14.8559   46.9995 C   0  0  0  0  0  0  0  0  0  0  0  0
  -12.7420  -15.6164   46.5776 C   0  0  2  0  0  0  0  0  0  0  0  0
  -11.5622  -14.8096   46.8155 N   0  0  0  0  0  0  0  0  0  0  0  0
  -11.1968  -13.4021   46.3158 C   0  0  0  0  0  0  0  0  0  0  0  0
  -11.7507  -12.6978   45.5713 O   0  0  0  0  0  0  0  0  0  0  0  0
  -10.0111  -12.9048   46.9946 C   0  0  0  0  0  0  0  0  0  0  0  0
   -9.2858  -13.3136   48.1038 C   0  0  0  0  0  0  0  0  0  0  0  0
   -8.2832  -12.4227   48.4190 N   0  0  0  0  0  0  0  0  0  0  0  0
   -8.3760  -11.5046   47.4964 C   0  0  0  0  0  0  0  0  0  0  0  0
   -7.4364  -10.1061   47.3201 Cl  0  0  0  0  0  0  0  0  0  0  0  0
   -9.3798  -11.7366   46.6163 N   0  0  0  0  0  0  0  0  0  0  0  0
  -12.8874  -16.2278   45.1740 C   0  0  0  0  0  0  0  0  0  0  0  0
  -13.2953  -15.3195   44.0193 C   0  0  0  0  0  0  0  0  0  0  0  0
  -13.1309  -16.2318   42.8080 C   0  0  0  0  0  0  0  0  0  0  0  0
  -11.9756  -17.1704   43.1532 C   0  0  0  0  0  0  0  0  0  0  0  0
  -11.6407  -16.9100   44.6193 C   0  0  0  0  0  0  0  0  0  0  0  0
  2  1  1  6
  2  3  1  0
  3  4  1  0
  4  5  2  0
  4  6  1  0
  6  7  2  0
  7  8  1  0
  8  9  2  0
  9 10  1  0
  9 11  1  0
  2 12  1  0
 12 13  1  0
 13 14  1  0
 14 15  1  0
 15 16  1  0
 11  6  1  0
 16 12  1  0
M  END
>  <inchikey>  (1276) 
DYJMVOVQUMZOAN-UHFFFAOYSA-N

>  <tags>  (1276) 
fragmenstein_placed,CpKRS_FrAncestor_bulkdock_iter2

>  <ref_pdb>  (1276) 
x0504a

>  <energy_score>  (1276) 
-6.412105

>  <distance_score>  (1276) 
0.746108

>  <HIPPO Pose ID>  (1276) 
59531

>  <ref_mols>  (1276) 
x0502b

>  <smiles>  (1276) 
C[C@H](NC(=O)c1cnc(Cl)[nH]1)C1CCCC1

>  <HIPPO Compound ID>  (1276) 
451844

>  <alias>  (1276) 
DYJMVOVQUMZOAN-ZETCQYMHSA-N-P44

>  <subsites>  (1276) 


>  <placement_batch>  (1276) 
CpKRS_FrAncestor_bulkdock_iter2

>  <name>  (1276) 
DYJMVOVQUMZOAN-ZETCQYMHSA-N-P44

$$$$
WNDPSRYVATXYCU-VIFPVBQESA-N-P44
     RDKit          3D

 16 17  0  0  0  0  0  0  0  0999 V2000
  -13.9068  -14.3057   46.2154 C   0  0  0  0  0  0  0  0  0  0  0  0
  -12.6563  -15.0720   45.7853 C   0  0  2  0  0  0  0  0  0  0  0  0
  -11.4876  -14.3861   46.3162 N   0  0  0  0  0  0  0  0  0  0  0  0
  -10.9465  -12.9710   46.0393 C   0  0  0  0  0  0  0  0  0  0  0  0
  -11.3069  -12.1590   45.2852 O   0  0  0  0  0  0  0  0  0  0  0  0
   -9.8398  -12.6534   46.9414 C   0  0  0  0  0  0  0  0  0  0  0  0
   -9.4332  -13.1986   48.1503 C   0  0  0  0  0  0  0  0  0  0  0  0
   -8.3708  -12.5186   48.6925 N   0  0  0  0  0  0  0  0  0  0  0  0
   -8.0960  -11.5764   47.8247 C   0  0  0  0  0  0  0  0  0  0  0  0
   -8.9420  -11.6173   46.7545 N   0  0  0  0  0  0  0  0  0  0  0  0
   -8.8702  -10.7297   45.6186 C   0  0  0  0  0  0  0  0  0  0  0  0
  -12.5353  -15.2395   44.2481 C   0  0  0  0  0  0  0  0  0  0  0  0
  -11.5160  -16.3328   43.8905 C   0  0  0  0  0  0  0  0  0  0  0  0
  -12.3133  -17.6255   43.7077 C   0  0  0  0  0  0  0  0  0  0  0  0
  -13.7839  -17.2393   43.7816 C   0  0  0  0  0  0  0  0  0  0  0  0
  -13.7936  -15.7417   43.5345 C   0  0  0  0  0  0  0  0  0  0  0  0
  2  1  1  6
  2  3  1  0
  3  4  1  0
  4  5  2  0
  4  6  1  0
  6  7  2  0
  7  8  1  0
  8  9  2  0
  9 10  1  0
 10 11  1  0
  2 12  1  0
 12 13  1  0
 13 14  1  0
 14 15  1  0
 15 16  1  0
 10  6  1  0
 16 12  1  0
M  END
>  <inchikey>  (1277) 
WNDPSRYVATXYCU-UHFFFAOYSA-N

>  <tags>  (1277) 
fragmenstein_placed,CpKRS_FrAncestor_bulkdock_iter2

>  <ref_pdb>  (1277) 
x0504a

>  <energy_score>  (1277) 
-7.927982

>  <distance_score>  (1277) 
0.417207

>  <HIPPO Pose ID>  (1277) 
59534

>  <ref_mols>  (1277) 
x0502b

>  <smiles>  (1277) 
C[C@H](NC(=O)c1cncn1C)C1CCCC1

>  <HIPPO Compound ID>  (1277) 
451845

>  <alias>  (1277) 
WNDPSRYVATXYCU-VIFPVBQESA-N-P44

>  <subsites>  (1277) 


>  <placement_batch>  (1277) 
CpKRS_FrAncestor_bulkdock_iter2

>  <name>  (1277) 
WNDPSRYVATXYCU-VIFPVBQESA-N-P44

$$$$
NDFNVTVWFHFQCT-QMMMGPOBSA-N-P44
     RDKit          3D

 20 21  0  0  0  0  0  0  0  0999 V2000
  -13.9377  -14.7289   46.4039 C   0  0  0  0  0  0  0  0  0  0  0  0
  -12.6288  -15.3042   45.8627 C   0  0  2  0  0  0  0  0  0  0  0  0
  -11.5170  -14.5796   46.4590 N   0  0  0  0  0  0  0  0  0  0  0  0
  -11.1890  -13.0756   46.4598 C   0  0  0  0  0  0  0  0  0  0  0  0
  -11.7964  -12.1701   46.0492 O   0  0  0  0  0  0  0  0  0  0  0  0
   -9.9467  -12.7830   47.1902 C   0  0  0  0  0  0  0  0  0  0  0  0
   -9.1144  -11.7168   46.8875 C   0  0  0  0  0  0  0  0  0  0  0  0
   -8.1416  -11.6955   47.8340 N   0  0  0  0  0  0  0  0  0  0  0  0
   -7.0711  -10.7373   47.9600 C   0  0  0  0  0  0  0  0  0  0  0  0
   -8.2805  -12.6472   48.7643 N   0  0  0  0  0  0  0  0  0  0  0  0
   -9.3692  -13.3449   48.3766 C   0  0  0  0  0  0  0  0  0  0  0  0
   -9.9000  -14.4858   49.1969 C   0  0  0  0  0  0  0  0  0  0  0  0
  -11.1115  -14.1811   49.7416 F   0  0  0  0  0  0  0  0  0  0  0  0
   -9.0981  -14.8636   50.2255 F   0  0  0  0  0  0  0  0  0  0  0  0
  -10.1075  -15.5965   48.4345 F   0  0  0  0  0  0  0  0  0  0  0  0
  -12.5250  -15.2734   44.3167 C   0  0  0  0  0  0  0  0  0  0  0  0
  -13.7813  -15.7007   43.5526 C   0  0  0  0  0  0  0  0  0  0  0  0
  -13.7692  -17.2173   43.6348 C   0  0  0  0  0  0  0  0  0  0  0  0
  -12.2948  -17.5966   43.5760 C   0  0  0  0  0  0  0  0  0  0  0  0
  -11.5056  -16.3092   43.8203 C   0  0  0  0  0  0  0  0  0  0  0  0
  2  1  1  6
  2  3  1  0
  3  4  1  0
  4  5  2  0
  4  6  1  0
  6  7  2  0
  7  8  1  0
  8  9  1  0
  8 10  1  0
 10 11  2  0
 11 12  1  0
 12 13  1  0
 12 14  1  0
 12 15  1  0
  2 16  1  0
 16 17  1  0
 17 18  1  0
 18 19  1  0
 19 20  1  0
 11  6  1  0
 20 16  1  0
M  END
>  <inchikey>  (1278) 
NDFNVTVWFHFQCT-UHFFFAOYSA-N

>  <tags>  (1278) 
fragmenstein_placed,CpKRS_FrAncestor_bulkdock_iter2

>  <ref_pdb>  (1278) 
x0504a

>  <energy_score>  (1278) 
-20.004342

>  <distance_score>  (1278) 
0.276958

>  <HIPPO Pose ID>  (1278) 
59537

>  <ref_mols>  (1278) 
x0502b

>  <smiles>  (1278) 
C[C@H](NC(=O)c1cn(C)nc1C(F)(F)F)C1CCCC1

>  <HIPPO Compound ID>  (1278) 
451846

>  <alias>  (1278) 
NDFNVTVWFHFQCT-QMMMGPOBSA-N-P44

>  <subsites>  (1278) 


>  <placement_batch>  (1278) 
CpKRS_FrAncestor_bulkdock_iter2

>  <name>  (1278) 
NDFNVTVWFHFQCT-QMMMGPOBSA-N-P44

$$$$
YUWKMXMIZXBFSJ-QMMMGPOBSA-N-P44
     RDKit          3D

 17 18  0  0  0  0  0  0  0  0999 V2000
  -13.8743  -14.2408   46.2201 C   0  0  0  0  0  0  0  0  0  0  0  0
  -12.6365  -15.0396   45.8124 C   0  0  2  0  0  0  0  0  0  0  0  0
  -11.4613  -14.3756   46.3572 N   0  0  0  0  0  0  0  0  0  0  0  0
  -10.8660  -12.9885   46.0548 C   0  0  0  0  0  0  0  0  0  0  0  0
  -11.1774  -12.1885   45.2663 O   0  0  0  0  0  0  0  0  0  0  0  0
   -9.7695  -12.6502   46.9748 C   0  0  0  0  0  0  0  0  0  0  0  0
   -8.9613  -11.5316   46.8112 C   0  0  0  0  0  0  0  0  0  0  0  0
   -8.0878  -11.5164   47.8516 N   0  0  0  0  0  0  0  0  0  0  0  0
   -7.0513  -10.5458   48.1022 C   0  0  0  0  0  0  0  0  0  0  0  0
   -8.2775  -12.5165   48.7216 N   0  0  0  0  0  0  0  0  0  0  0  0
   -9.2718  -13.2223   48.1723 C   0  0  0  0  0  0  0  0  0  0  0  0
   -9.8197  -14.6097   48.9832 Cl  0  0  0  0  0  0  0  0  0  0  0  0
  -12.5023  -15.2232   44.2779 C   0  0  0  0  0  0  0  0  0  0  0  0
  -13.7620  -15.7111   43.5559 C   0  0  0  0  0  0  0  0  0  0  0  0
  -13.7764  -17.2073   43.8112 C   0  0  0  0  0  0  0  0  0  0  0  0
  -12.3115  -17.6150   43.7441 C   0  0  0  0  0  0  0  0  0  0  0  0
  -11.4968  -16.3350   43.9391 C   0  0  0  0  0  0  0  0  0  0  0  0
  2  1  1  6
  2  3  1  0
  3  4  1  0
  4  5  2  0
  4  6  1  0
  6  7  2  0
  7  8  1  0
  8  9  1  0
  8 10  1  0
 10 11  2  0
 11 12  1  0
  2 13  1  0
 13 14  1  0
 14 15  1  0
 15 16  1  0
 16 17  1  0
 11  6  1  0
 17 13  1  0
M  END
>  <inchikey>  (1279) 
YUWKMXMIZXBFSJ-UHFFFAOYSA-N

>  <tags>  (1279) 
fragmenstein_placed,CpKRS_FrAncestor_bulkdock_iter2

>  <ref_pdb>  (1279) 
x0504a

>  <energy_score>  (1279) 
-7.239737

>  <distance_score>  (1279) 
0.385058

>  <HIPPO Pose ID>  (1279) 
59540

>  <ref_mols>  (1279) 
x0502b

>  <smiles>  (1279) 
C[C@H](NC(=O)c1cn(C)nc1Cl)C1CCCC1

>  <HIPPO Compound ID>  (1279) 
166994

>  <alias>  (1279) 
YUWKMXMIZXBFSJ-QMMMGPOBSA-N-P44

>  <subsites>  (1279) 


>  <placement_batch>  (1279) 
CpKRS_FrAncestor_bulkdock_iter2

>  <name>  (1279) 
YUWKMXMIZXBFSJ-QMMMGPOBSA-N-P44

$$$$
SRKZIWCXEQJDDA-QMMMGPOBSA-N-P44
     RDKit          3D

 15 16  0  0  0  0  0  0  0  0999 V2000
  -13.9278  -14.0708   46.0168 C   0  0  0  0  0  0  0  0  0  0  0  0
  -12.7103  -14.9457   45.7172 C   0  0  2  0  0  0  0  0  0  0  0  0
  -11.5368  -14.3190   46.3062 N   0  0  0  0  0  0  0  0  0  0  0  0
  -10.8617  -12.9717   45.9967 C   0  0  0  0  0  0  0  0  0  0  0  0
  -11.0917  -12.1841   45.1691 O   0  0  0  0  0  0  0  0  0  0  0  0
   -9.8085  -12.6793   46.9538 C   0  0  0  0  0  0  0  0  0  0  0  0
   -9.3695  -13.2560   48.1309 C   0  0  0  0  0  0  0  0  0  0  0  0
   -8.3503  -12.5283   48.7006 N   0  0  0  0  0  0  0  0  0  0  0  0
   -8.1352  -11.5345   47.8731 C   0  0  0  0  0  0  0  0  0  0  0  0
   -8.9845  -11.5827   46.8102 N   0  0  0  0  0  0  0  0  0  0  0  0
  -12.4992  -15.1994   44.2020 C   0  0  0  0  0  0  0  0  0  0  0  0
  -11.4955  -16.3386   43.9609 C   0  0  0  0  0  0  0  0  0  0  0  0
  -12.3189  -17.6118   43.7568 C   0  0  0  0  0  0  0  0  0  0  0  0
  -13.7791  -17.1836   43.7551 C   0  0  0  0  0  0  0  0  0  0  0  0
  -13.7318  -15.6990   43.4419 C   0  0  0  0  0  0  0  0  0  0  0  0
  2  1  1  6
  2  3  1  0
  3  4  1  0
  4  5  2  0
  4  6  1  0
  6  7  2  0
  7  8  1  0
  8  9  2  0
  9 10  1  0
  2 11  1  0
 11 12  1  0
 12 13  1  0
 13 14  1  0
 14 15  1  0
 10  6  1  0
 15 11  1  0
M  END
>  <inchikey>  (1280) 
SRKZIWCXEQJDDA-UHFFFAOYSA-N

>  <tags>  (1280) 
fragmenstein_placed,CpKRS_FrAncestor_bulkdock_iter2

>  <ref_pdb>  (1280) 
x0504a

>  <energy_score>  (1280) 
-8.492156

>  <distance_score>  (1280) 
0.445397

>  <HIPPO Pose ID>  (1280) 
59543

>  <ref_mols>  (1280) 
x0502b

>  <smiles>  (1280) 
C[C@H](NC(=O)c1cnc[nH]1)C1CCCC1

>  <HIPPO Compound ID>  (1280) 
451847

>  <alias>  (1280) 
SRKZIWCXEQJDDA-QMMMGPOBSA-N-P44

>  <subsites>  (1280) 


>  <placement_batch>  (1280) 
CpKRS_FrAncestor_bulkdock_iter2

>  <name>  (1280) 
SRKZIWCXEQJDDA-QMMMGPOBSA-N-P44

$$$$
WNDZOWJHMCPNOP-QMMMGPOBSA-N-P44
     RDKit          3D

 15 16  0  0  0  0  0  0  0  0999 V2000
  -13.8697  -14.1539   46.0924 C   0  0  0  0  0  0  0  0  0  0  0  0
  -12.6400  -14.9868   45.7301 C   0  0  2  0  0  0  0  0  0  0  0  0
  -11.4625  -14.3401   46.2905 N   0  0  0  0  0  0  0  0  0  0  0  0
  -10.8595  -12.9416   46.0191 C   0  0  0  0  0  0  0  0  0  0  0  0
  -11.1688  -12.1217   45.2482 O   0  0  0  0  0  0  0  0  0  0  0  0
   -9.7730  -12.6611   46.9558 C   0  0  0  0  0  0  0  0  0  0  0  0
   -9.2612  -13.2711   48.0850 C   0  0  0  0  0  0  0  0  0  0  0  0
   -8.2489  -12.5176   48.6310 N   0  0  0  0  0  0  0  0  0  0  0  0
   -8.1573  -11.4998   47.8090 C   0  0  0  0  0  0  0  0  0  0  0  0
   -9.0441  -11.5021   46.7820 O   0  0  0  0  0  0  0  0  0  0  0  0
  -12.4730  -15.2035   44.2040 C   0  0  0  0  0  0  0  0  0  0  0  0
  -13.7266  -15.6790   43.4631 C   0  0  0  0  0  0  0  0  0  0  0  0
  -13.7792  -17.1690   43.7486 C   0  0  0  0  0  0  0  0  0  0  0  0
  -12.3225  -17.6090   43.7180 C   0  0  0  0  0  0  0  0  0  0  0  0
  -11.4845  -16.3436   43.9110 C   0  0  0  0  0  0  0  0  0  0  0  0
  2  1  1  6
  2  3  1  0
  3  4  1  0
  4  5  2  0
  4  6  1  0
  6  7  2  0
  7  8  1  0
  8  9  2  0
  9 10  1  0
  2 11  1  0
 11 12  1  0
 12 13  1  0
 13 14  1  0
 14 15  1  0
 10  6  1  0
 15 11  1  0
M  END
>  <inchikey>  (1281) 
WNDZOWJHMCPNOP-UHFFFAOYSA-N

>  <tags>  (1281) 
fragmenstein_placed,CpKRS_FrAncestor_bulkdock_iter2

>  <ref_pdb>  (1281) 
x0504a

>  <energy_score>  (1281) 
-6.197108

>  <distance_score>  (1281) 
0.419541

>  <HIPPO Pose ID>  (1281) 
59546

>  <ref_mols>  (1281) 
x0502b

>  <smiles>  (1281) 
C[C@H](NC(=O)c1cnco1)C1CCCC1

>  <HIPPO Compound ID>  (1281) 
451848

>  <alias>  (1281) 
WNDZOWJHMCPNOP-QMMMGPOBSA-N-P44

>  <subsites>  (1281) 


>  <placement_batch>  (1281) 
CpKRS_FrAncestor_bulkdock_iter2

>  <name>  (1281) 
WNDZOWJHMCPNOP-QMMMGPOBSA-N-P44

$$$$
JOFGKWFPMYCYRQ-LURJTMIESA-N-P48
     RDKit          3D

 19 19  0  0  0  0  0  0  0  0999 V2000
    4.6560  -12.0934   21.8846 C   0  0  0  0  0  0  0  0  0  0  0  0
    4.7965  -11.2969   23.1739 C   0  0  2  0  0  0  0  0  0  0  0  0
    4.1121  -12.0376   24.2159 N   0  0  0  0  0  0  0  0  0  0  0  0
    4.3753  -13.4441   24.7787 C   0  0  0  0  0  0  0  0  0  0  0  0
    5.2289  -14.1998   24.5494 O   0  0  0  0  0  0  0  0  0  0  0  0
    3.3311  -13.8271   25.7127 C   0  0  0  0  0  0  0  0  0  0  0  0
    3.4893  -14.6702   26.7968 C   0  0  0  0  0  0  0  0  0  0  0  0
    2.3291  -14.8081   27.5008 N   0  0  0  0  0  0  0  0  0  0  0  0
    1.4300  -14.0807   26.8573 C   0  0  0  0  0  0  0  0  0  0  0  0
    0.0190  -13.8441   27.2747 C   0  0  0  0  0  0  0  0  0  0  0  0
   -0.7876  -14.8804   26.9299 F   0  0  0  0  0  0  0  0  0  0  0  0
   -0.5315  -12.7451   26.6880 F   0  0  0  0  0  0  0  0  0  0  0  0
   -0.0712  -13.6448   28.6099 F   0  0  0  0  0  0  0  0  0  0  0  0
    1.9752  -13.5675   25.6979 N   0  0  0  0  0  0  0  0  0  0  0  0
    1.2177  -13.0170   24.5945 C   0  0  0  0  0  0  0  0  0  0  0  0
    4.3800   -9.8177   23.0331 C   0  0  0  0  0  0  0  0  0  0  0  0
    5.1070   -9.1156   21.8844 C   0  0  0  0  0  0  0  0  0  0  0  0
    4.6340   -9.0553   24.3298 C   0  0  0  0  0  0  0  0  0  0  0  0
    3.0359   -9.7309   22.7809 F   0  0  0  0  0  0  0  0  0  0  0  0
  2  1  1  6
  2  3  1  0
  3  4  1  0
  4  5  2  0
  4  6  1  0
  6  7  2  0
  7  8  1  0
  8  9  2  0
  9 10  1  0
 10 11  1  0
 10 12  1  0
 10 13  1  0
  9 14  1  0
 14 15  1  0
  2 16  1  0
 16 17  1  0
 16 18  1  0
 16 19  1  0
 14  6  1  0
M  END
>  <inchikey>  (1282) 
JOFGKWFPMYCYRQ-UHFFFAOYSA-N

>  <tags>  (1282) 
fragmenstein_placed,CpKRS_FrAncestor_bulkdock_iter2

>  <ref_pdb>  (1282) 
x0504a

>  <energy_score>  (1282) 
-11.825892

>  <distance_score>  (1282) 
0.744291

>  <HIPPO Pose ID>  (1282) 
59548

>  <ref_mols>  (1282) 
x0504a

>  <smiles>  (1282) 
C[C@H](NC(=O)c1cnc(C(F)(F)F)n1C)C(C)(C)F

>  <HIPPO Compound ID>  (1282) 
415962

>  <alias>  (1282) 
JOFGKWFPMYCYRQ-LURJTMIESA-N-P48

>  <subsites>  (1282) 


>  <placement_batch>  (1282) 
CpKRS_FrAncestor_bulkdock_iter2

>  <name>  (1282) 
JOFGKWFPMYCYRQ-LURJTMIESA-N-P48

$$$$
FPJBQFWGKWHCEO-BYPYZUCNSA-N-P48
     RDKit          3D

 18 18  0  0  0  0  0  0  0  0999 V2000
    4.9159  -12.2147   21.9950 C   0  0  0  0  0  0  0  0  0  0  0  0
    4.8288  -11.4258   23.2934 C   0  0  2  0  0  0  0  0  0  0  0  0
    4.2123  -12.2202   24.3476 N   0  0  0  0  0  0  0  0  0  0  0  0
    4.3060  -13.7244   24.6485 C   0  0  0  0  0  0  0  0  0  0  0  0
    4.9497  -14.5537   24.1495 O   0  0  0  0  0  0  0  0  0  0  0  0
    3.3803  -14.0606   25.7093 C   0  0  0  0  0  0  0  0  0  0  0  0
    3.6106  -14.8961   26.7822 C   0  0  0  0  0  0  0  0  0  0  0  0
    2.5135  -14.9788   27.5924 N   0  0  0  0  0  0  0  0  0  0  0  0
    1.5832  -14.2260   27.0251 C   0  0  0  0  0  0  0  0  0  0  0  0
    0.2074  -13.9674   27.5393 C   0  0  0  0  0  0  0  0  0  0  0  0
    0.1887  -13.8531   28.8883 F   0  0  0  0  0  0  0  0  0  0  0  0
   -0.6514  -14.9473   27.1627 F   0  0  0  0  0  0  0  0  0  0  0  0
   -0.3271  -12.8147   27.0488 F   0  0  0  0  0  0  0  0  0  0  0  0
    2.0486  -13.7196   25.8304 N   0  0  0  0  0  0  0  0  0  0  0  0
    1.2417  -13.0797   24.8151 C   0  0  0  0  0  0  0  0  0  0  0  0
    4.0894  -10.1217   23.0229 C   0  0  0  0  0  0  0  0  0  0  0  0
    4.7001   -9.4085   22.0441 F   0  0  0  0  0  0  0  0  0  0  0  0
    4.1057   -9.3344   24.1297 F   0  0  0  0  0  0  0  0  0  0  0  0
  2  1  1  6
  2  3  1  0
  3  4  1  0
  4  5  2  0
  4  6  1  0
  6  7  2  0
  7  8  1  0
  8  9  2  0
  9 10  1  0
 10 11  1  0
 10 12  1  0
 10 13  1  0
  9 14  1  0
 14 15  1  0
  2 16  1  0
 16 17  1  0
 16 18  1  0
 14  6  1  0
M  END
>  <inchikey>  (1283) 
FPJBQFWGKWHCEO-UHFFFAOYSA-N

>  <tags>  (1283) 
fragmenstein_placed,CpKRS_FrAncestor_bulkdock_iter2

>  <ref_pdb>  (1283) 
x0504a

>  <energy_score>  (1283) 
-5.932513

>  <distance_score>  (1283) 
0.683021

>  <HIPPO Pose ID>  (1283) 
59560

>  <ref_mols>  (1283) 
x0504a

>  <smiles>  (1283) 
C[C@H](NC(=O)c1cnc(C(F)(F)F)n1C)C(F)F

>  <HIPPO Compound ID>  (1283) 
337543

>  <alias>  (1283) 
FPJBQFWGKWHCEO-BYPYZUCNSA-N-P48

>  <subsites>  (1283) 


>  <placement_batch>  (1283) 
CpKRS_FrAncestor_bulkdock_iter2

>  <name>  (1283) 
FPJBQFWGKWHCEO-BYPYZUCNSA-N-P48

$$$$
CIZLIHXTADEARZ-SCSAIBSYSA-N-P48
     RDKit          3D

 16 16  0  0  0  0  0  0  0  0999 V2000
    5.2629  -12.2202   22.0018 C   0  0  0  0  0  0  0  0  0  0  0  0
    3.8985  -11.7428   22.4281 C   0  0  1  0  0  0  0  0  0  0  0  0
    3.3777  -12.5656   23.4966 N   0  0  0  0  0  0  0  0  0  0  0  0
    4.0166  -13.0041   24.8143 C   0  0  0  0  0  0  0  0  0  0  0  0
    5.0907  -12.8395   25.2204 O   0  0  0  0  0  0  0  0  0  0  0  0
    3.0206  -13.6768   25.6379 C   0  0  0  0  0  0  0  0  0  0  0  0
    3.2540  -14.6795   26.5705 C   0  0  0  0  0  0  0  0  0  0  0  0
    2.0940  -15.1136   27.1609 N   0  0  0  0  0  0  0  0  0  0  0  0
    1.1696  -14.3523   26.6421 C   0  0  0  0  0  0  0  0  0  0  0  0
   -0.5068  -14.4901   26.8821 Cl  0  0  0  0  0  0  0  0  0  0  0  0
    1.6643  -13.4270   25.7715 N   0  0  0  0  0  0  0  0  0  0  0  0
    0.8892  -12.3784   25.1539 C   0  0  0  0  0  0  0  0  0  0  0  0
    3.9811  -10.2382   22.7538 C   0  0  0  0  0  0  0  0  0  0  0  0
    2.7383   -9.6985   22.8938 F   0  0  0  0  0  0  0  0  0  0  0  0
    4.6586   -9.9600   23.8860 F   0  0  0  0  0  0  0  0  0  0  0  0
    4.5807   -9.5506   21.7513 F   0  0  0  0  0  0  0  0  0  0  0  0
  2  1  1  1
  2  3  1  0
  3  4  1  0
  4  5  2  0
  4  6  1  0
  6  7  2  0
  7  8  1  0
  8  9  2  0
  9 10  1  0
  9 11  1  0
 11 12  1  0
  2 13  1  0
 13 14  1  0
 13 15  1  0
 13 16  1  0
 11  6  1  0
M  END
>  <inchikey>  (1284) 
CIZLIHXTADEARZ-UHFFFAOYSA-N

>  <tags>  (1284) 
fragmenstein_placed,CpKRS_FrAncestor_bulkdock_iter2

>  <ref_pdb>  (1284) 
x0504a

>  <energy_score>  (1284) 
-2.379612

>  <distance_score>  (1284) 
0.597967

>  <HIPPO Pose ID>  (1284) 
59572

>  <ref_mols>  (1284) 
x0504a

>  <smiles>  (1284) 
C[C@@H](NC(=O)c1cnc(Cl)n1C)C(F)(F)F

>  <HIPPO Compound ID>  (1284) 
451850

>  <alias>  (1284) 
CIZLIHXTADEARZ-SCSAIBSYSA-N-P48

>  <subsites>  (1284) 


>  <placement_batch>  (1284) 
CpKRS_FrAncestor_bulkdock_iter2

>  <name>  (1284) 
CIZLIHXTADEARZ-SCSAIBSYSA-N-P48

$$$$
BGBRYUYXDSEZEQ-SCSAIBSYSA-N-P49
     RDKit          3D

 15 15  0  0  0  0  0  0  0  0999 V2000
    5.0589  -11.3842   21.8143 C   0  0  0  0  0  0  0  0  0  0  0  0
    4.2301  -10.7679   22.9182 C   0  0  1  0  0  0  0  0  0  0  0  0
    3.5650  -11.7914   23.6943 N   0  0  0  0  0  0  0  0  0  0  0  0
    4.1284  -12.8069   24.6927 C   0  0  0  0  0  0  0  0  0  0  0  0
    5.2263  -13.0357   24.9948 O   0  0  0  0  0  0  0  0  0  0  0  0
    3.0413  -13.4857   25.3970 C   0  0  0  0  0  0  0  0  0  0  0  0
    3.1165  -14.7252   26.0239 C   0  0  0  0  0  0  0  0  0  0  0  0
    1.9435  -15.0610   26.6509 N   0  0  0  0  0  0  0  0  0  0  0  0
    1.1734  -14.0274   26.4558 C   0  0  0  0  0  0  0  0  0  0  0  0
   -0.4492  -13.9070   26.9550 Cl  0  0  0  0  0  0  0  0  0  0  0  0
    1.7820  -13.0228   25.7580 N   0  0  0  0  0  0  0  0  0  0  0  0
    1.2368  -11.7025   25.5414 C   0  0  0  0  0  0  0  0  0  0  0  0
    5.0961   -9.8467   23.7839 C   0  0  0  0  0  0  0  0  0  0  0  0
    4.3463   -9.3348   24.7976 F   0  0  0  0  0  0  0  0  0  0  0  0
    5.4888   -8.7776   23.0398 F   0  0  0  0  0  0  0  0  0  0  0  0
  2  1  1  6
  2  3  1  0
  3  4  1  0
  4  5  2  0
  4  6  1  0
  6  7  2  0
  7  8  1  0
  8  9  2  0
  9 10  1  0
  9 11  1  0
 11 12  1  0
  2 13  1  0
 13 14  1  0
 13 15  1  0
 11  6  1  0
M  END
>  <inchikey>  (1285) 
BGBRYUYXDSEZEQ-UHFFFAOYSA-N

>  <tags>  (1285) 
fragmenstein_placed,CpKRS_FrAncestor_bulkdock_iter2

>  <ref_pdb>  (1285) 
x0504a

>  <energy_score>  (1285) 
-7.461698

>  <distance_score>  (1285) 
0.63052

>  <HIPPO Pose ID>  (1285) 
59582

>  <ref_mols>  (1285) 
x0504b

>  <smiles>  (1285) 
C[C@@H](NC(=O)c1cnc(Cl)n1C)C(F)F

>  <HIPPO Compound ID>  (1285) 
451851

>  <alias>  (1285) 
BGBRYUYXDSEZEQ-SCSAIBSYSA-N-P49

>  <subsites>  (1285) 


>  <placement_batch>  (1285) 
CpKRS_FrAncestor_bulkdock_iter2

>  <name>  (1285) 
BGBRYUYXDSEZEQ-SCSAIBSYSA-N-P49

$$$$
XBEZJSGWLYILAN-ZCFIWIBFSA-N-P49
     RDKit          3D

 16 16  0  0  0  0  0  0  0  0999 V2000
    4.9051  -11.3755   21.8675 C   0  0  0  0  0  0  0  0  0  0  0  0
    4.1475  -10.6800   22.9877 C   0  0  1  0  0  0  0  0  0  0  0  0
    3.5667  -11.6831   23.8590 N   0  0  0  0  0  0  0  0  0  0  0  0
    4.2258  -12.8472   24.6236 C   0  0  0  0  0  0  0  0  0  0  0  0
    5.3242  -13.2295   24.6132 O   0  0  0  0  0  0  0  0  0  0  0  0
    3.2437  -13.5061   25.4913 C   0  0  0  0  0  0  0  0  0  0  0  0
    1.9951  -13.0392   25.8758 C   0  0  0  0  0  0  0  0  0  0  0  0
    1.4915  -13.9629   26.7325 N   0  0  0  0  0  0  0  0  0  0  0  0
    0.2224  -13.9060   27.3905 C   0  0  0  0  0  0  0  0  0  0  0  0
    2.2719  -15.0241   26.9223 N   0  0  0  0  0  0  0  0  0  0  0  0
    3.3607  -14.7273   26.2075 C   0  0  0  0  0  0  0  0  0  0  0  0
    4.8383  -15.8855   26.1974 Br  0  0  0  0  0  0  0  0  0  0  0  0
    5.0137   -9.6528   23.7593 C   0  0  0  0  0  0  0  0  0  0  0  0
    5.6381   -8.6135   22.8335 C   0  0  0  0  0  0  0  0  0  0  0  0
    4.2024   -8.9401   24.8347 C   0  0  0  0  0  0  0  0  0  0  0  0
    6.0345  -10.2971   24.3904 F   0  0  0  0  0  0  0  0  0  0  0  0
  2  1  1  6
  2  3  1  0
  3  4  1  0
  4  5  2  0
  4  6  1  0
  6  7  2  0
  7  8  1  0
  8  9  1  0
  8 10  1  0
 10 11  2  0
 11 12  1  0
  2 13  1  0
 13 14  1  0
 13 15  1  0
 13 16  1  0
 11  6  1  0
M  END
>  <inchikey>  (1286) 
XBEZJSGWLYILAN-UHFFFAOYSA-N

>  <tags>  (1286) 
fragmenstein_placed,CpKRS_FrAncestor_bulkdock_iter2

>  <ref_pdb>  (1286) 
x0504a

>  <energy_score>  (1286) 
-7.25672

>  <distance_score>  (1286) 
0.647327

>  <HIPPO Pose ID>  (1286) 
59606

>  <ref_mols>  (1286) 
x0504b

>  <smiles>  (1286) 
C[C@@H](NC(=O)c1cn(C)nc1Br)C(C)(C)F

>  <HIPPO Compound ID>  (1286) 
451854

>  <alias>  (1286) 
XBEZJSGWLYILAN-ZCFIWIBFSA-N-P49

>  <subsites>  (1286) 


>  <placement_batch>  (1286) 
CpKRS_FrAncestor_bulkdock_iter2

>  <name>  (1286) 
XBEZJSGWLYILAN-ZCFIWIBFSA-N-P49

$$$$
LWNMBUITAGTSPF-LURJTMIESA-N-P48
     RDKit          3D

 16 16  0  0  0  0  0  0  0  0999 V2000
    4.6324  -12.1429   21.9027 C   0  0  0  0  0  0  0  0  0  0  0  0
    4.7225  -11.3089   23.1693 C   0  0  2  0  0  0  0  0  0  0  0  0
    3.9710  -12.0055   24.1898 N   0  0  0  0  0  0  0  0  0  0  0  0
    4.3721  -13.1777   25.0997 C   0  0  0  0  0  0  0  0  0  0  0  0
    5.3939  -13.7175   25.2260 O   0  0  0  0  0  0  0  0  0  0  0  0
    3.2174  -13.6662   25.8662 C   0  0  0  0  0  0  0  0  0  0  0  0
    1.9478  -13.1257   26.0122 C   0  0  0  0  0  0  0  0  0  0  0  0
    1.2682  -13.9548   26.8571 N   0  0  0  0  0  0  0  0  0  0  0  0
   -0.0814  -13.7936   27.3340 C   0  0  0  0  0  0  0  0  0  0  0  0
    1.9735  -15.0181   27.2513 N   0  0  0  0  0  0  0  0  0  0  0  0
    3.1638  -14.8322   26.6759 C   0  0  0  0  0  0  0  0  0  0  0  0
    4.3900  -15.9651   26.9500 Cl  0  0  0  0  0  0  0  0  0  0  0  0
    4.3472   -9.8255   22.9894 C   0  0  0  0  0  0  0  0  0  0  0  0
    5.1213   -9.1636   21.8488 C   0  0  0  0  0  0  0  0  0  0  0  0
    4.5842   -9.0509   24.2827 C   0  0  0  0  0  0  0  0  0  0  0  0
    3.0127   -9.7083   22.6993 F   0  0  0  0  0  0  0  0  0  0  0  0
  2  1  1  6
  2  3  1  0
  3  4  1  0
  4  5  2  0
  4  6  1  0
  6  7  2  0
  7  8  1  0
  8  9  1  0
  8 10  1  0
 10 11  2  0
 11 12  1  0
  2 13  1  0
 13 14  1  0
 13 15  1  0
 13 16  1  0
 11  6  1  0
M  END
>  <inchikey>  (1287) 
LWNMBUITAGTSPF-UHFFFAOYSA-N

>  <tags>  (1287) 
fragmenstein_placed,CpKRS_FrAncestor_bulkdock_iter2

>  <ref_pdb>  (1287) 
x0504a

>  <energy_score>  (1287) 
-22.016744

>  <distance_score>  (1287) 
0.541314

>  <HIPPO Pose ID>  (1287) 
59608

>  <ref_mols>  (1287) 
x0504a

>  <smiles>  (1287) 
C[C@H](NC(=O)c1cn(C)nc1Cl)C(C)(C)F

>  <HIPPO Compound ID>  (1287) 
451855

>  <alias>  (1287) 
LWNMBUITAGTSPF-LURJTMIESA-N-P48

>  <subsites>  (1287) 


>  <placement_batch>  (1287) 
CpKRS_FrAncestor_bulkdock_iter2

>  <name>  (1287) 
LWNMBUITAGTSPF-LURJTMIESA-N-P48

$$$$
FNOFWPVMFGGQPI-VIFPVBQESA-N-P44
     RDKit          3D

 16 17  0  0  0  0  0  0  0  0999 V2000
  -14.0804  -14.0323   45.9529 C   0  0  0  0  0  0  0  0  0  0  0  0
  -12.8195  -14.8620   45.7094 C   0  0  2  0  0  0  0  0  0  0  0  0
  -11.6911  -14.1781   46.3214 N   0  0  0  0  0  0  0  0  0  0  0  0
  -11.0619  -12.8067   46.0079 C   0  0  0  0  0  0  0  0  0  0  0  0
  -11.3954  -11.9755   45.2619 O   0  0  0  0  0  0  0  0  0  0  0  0
   -9.9169  -12.5337   46.8874 C   0  0  0  0  0  0  0  0  0  0  0  0
   -9.1262  -11.3556   46.8629 C   0  0  0  0  0  0  0  0  0  0  0  0
   -8.1648  -11.3423   47.7894 N   0  0  0  0  0  0  0  0  0  0  0  0
   -8.3046  -12.5334   48.3966 N   0  0  0  0  0  0  0  0  0  0  0  0
   -7.4076  -12.8967   49.4680 C   0  0  0  0  0  0  0  0  0  0  0  0
   -9.3498  -13.2729   47.9115 C   0  0  0  0  0  0  0  0  0  0  0  0
  -12.5494  -15.1385   44.2077 C   0  0  0  0  0  0  0  0  0  0  0  0
  -13.7396  -15.6929   43.4182 C   0  0  0  0  0  0  0  0  0  0  0  0
  -13.7480  -17.1722   43.7588 C   0  0  0  0  0  0  0  0  0  0  0  0
  -12.2750  -17.5509   43.8037 C   0  0  0  0  0  0  0  0  0  0  0  0
  -11.5016  -16.2490   44.0237 C   0  0  0  0  0  0  0  0  0  0  0  0
  2  1  1  6
  2  3  1  0
  3  4  1  0
  4  5  2  0
  4  6  1  0
  6  7  1  0
  7  8  2  0
  8  9  1  0
  9 10  1  0
  9 11  1  0
  2 12  1  0
 12 13  1  0
 13 14  1  0
 14 15  1  0
 15 16  1  0
 11  6  2  0
 16 12  1  0
M  END
>  <inchikey>  (1288) 
FNOFWPVMFGGQPI-UHFFFAOYSA-N

>  <tags>  (1288) 
fragmenstein_placed,CpKRS_FrAncestor_bulkdock_iter2

>  <ref_pdb>  (1288) 
x0504a

>  <energy_score>  (1288) 
-6.348435

>  <distance_score>  (1288) 
0.485266

>  <HIPPO Pose ID>  (1288) 
59615

>  <ref_mols>  (1288) 
x0502b

>  <smiles>  (1288) 
C[C@H](NC(=O)c1cnn(C)c1)C1CCCC1

>  <HIPPO Compound ID>  (1288) 
451856

>  <alias>  (1288) 
FNOFWPVMFGGQPI-VIFPVBQESA-N-P44

>  <subsites>  (1288) 


>  <placement_batch>  (1288) 
CpKRS_FrAncestor_bulkdock_iter2

>  <name>  (1288) 
FNOFWPVMFGGQPI-VIFPVBQESA-N-P44

$$$$
QUUZESFBXYQKJQ-QMMMGPOBSA-N-P44
     RDKit          3D

 20 21  0  0  0  0  0  0  0  0999 V2000
  -13.9659  -14.5502   46.3566 C   0  0  0  0  0  0  0  0  0  0  0  0
  -12.6699  -15.1917   45.8613 C   0  0  2  0  0  0  0  0  0  0  0  0
  -11.5400  -14.4855   46.4451 N   0  0  0  0  0  0  0  0  0  0  0  0
  -11.1638  -12.9946   46.4036 C   0  0  0  0  0  0  0  0  0  0  0  0
  -11.7382  -12.0833   45.9609 O   0  0  0  0  0  0  0  0  0  0  0  0
   -9.9055  -12.7166   47.1134 C   0  0  0  0  0  0  0  0  0  0  0  0
   -9.0710  -11.6067   46.8336 C   0  0  0  0  0  0  0  0  0  0  0  0
   -8.0361  -11.5055   47.6645 N   0  0  0  0  0  0  0  0  0  0  0  0
   -8.1794  -12.5635   48.4848 N   0  0  0  0  0  0  0  0  0  0  0  0
   -7.2118  -12.7349   49.5490 C   0  0  0  0  0  0  0  0  0  0  0  0
   -9.3027  -13.3112   48.2216 C   0  0  0  0  0  0  0  0  0  0  0  0
   -9.7087  -14.4350   49.0857 C   0  0  0  0  0  0  0  0  0  0  0  0
  -10.1415  -15.4977   48.3609 F   0  0  0  0  0  0  0  0  0  0  0  0
   -8.7282  -14.8955   49.8980 F   0  0  0  0  0  0  0  0  0  0  0  0
  -10.7405  -14.0760   49.8914 F   0  0  0  0  0  0  0  0  0  0  0  0
  -12.5429  -15.2260   44.3169 C   0  0  0  0  0  0  0  0  0  0  0  0
  -11.5113  -16.2762   43.8769 C   0  0  0  0  0  0  0  0  0  0  0  0
  -12.2916  -17.5707   43.6404 C   0  0  0  0  0  0  0  0  0  0  0  0
  -13.7680  -17.2000   43.6931 C   0  0  0  0  0  0  0  0  0  0  0  0
  -13.7885  -15.6876   43.5554 C   0  0  0  0  0  0  0  0  0  0  0  0
  2  1  1  6
  2  3  1  0
  3  4  1  0
  4  5  2  0
  4  6  1  0
  6  7  1  0
  7  8  2  0
  8  9  1  0
  9 10  1  0
  9 11  1  0
 11 12  1  0
 12 13  1  0
 12 14  1  0
 12 15  1  0
  2 16  1  0
 16 17  1  0
 17 18  1  0
 18 19  1  0
 19 20  1  0
 11  6  2  0
 20 16  1  0
M  END
>  <inchikey>  (1289) 
QUUZESFBXYQKJQ-UHFFFAOYSA-N

>  <tags>  (1289) 
fragmenstein_placed,CpKRS_FrAncestor_bulkdock_iter2

>  <ref_pdb>  (1289) 
x0504a

>  <energy_score>  (1289) 
-13.015584

>  <distance_score>  (1289) 
0.264979

>  <HIPPO Pose ID>  (1289) 
59618

>  <ref_mols>  (1289) 
x0502b

>  <smiles>  (1289) 
C[C@H](NC(=O)c1cnn(C)c1C(F)(F)F)C1CCCC1

>  <HIPPO Compound ID>  (1289) 
451857

>  <alias>  (1289) 
QUUZESFBXYQKJQ-QMMMGPOBSA-N-P44

>  <subsites>  (1289) 


>  <placement_batch>  (1289) 
CpKRS_FrAncestor_bulkdock_iter2

>  <name>  (1289) 
QUUZESFBXYQKJQ-QMMMGPOBSA-N-P44

$$$$
KWZNHHJPWFNBKZ-QMMMGPOBSA-N-P44
     RDKit          3D

 17 18  0  0  0  0  0  0  0  0999 V2000
  -13.9013  -14.1624   46.1803 C   0  0  0  0  0  0  0  0  0  0  0  0
  -12.6680  -14.9793   45.7963 C   0  0  2  0  0  0  0  0  0  0  0  0
  -11.4887  -14.3248   46.3418 N   0  0  0  0  0  0  0  0  0  0  0  0
  -10.9014  -12.9293   46.0647 C   0  0  0  0  0  0  0  0  0  0  0  0
  -11.2247  -12.1123   45.2992 O   0  0  0  0  0  0  0  0  0  0  0  0
   -9.7820  -12.6257   46.9607 C   0  0  0  0  0  0  0  0  0  0  0  0
   -8.9308  -11.4925   46.8461 C   0  0  0  0  0  0  0  0  0  0  0  0
   -8.0020  -11.4179   47.8049 N   0  0  0  0  0  0  0  0  0  0  0  0
   -8.2148  -12.5389   48.5270 N   0  0  0  0  0  0  0  0  0  0  0  0
   -7.3460  -12.8263   49.6447 C   0  0  0  0  0  0  0  0  0  0  0  0
   -9.2937  -13.2526   48.0859 C   0  0  0  0  0  0  0  0  0  0  0  0
   -9.7906  -14.6396   48.9456 Cl  0  0  0  0  0  0  0  0  0  0  0  0
  -12.5186  -15.1857   44.2663 C   0  0  0  0  0  0  0  0  0  0  0  0
  -13.7700  -15.6908   43.5419 C   0  0  0  0  0  0  0  0  0  0  0  0
  -13.7748  -17.1844   43.8131 C   0  0  0  0  0  0  0  0  0  0  0  0
  -12.3072  -17.5822   43.7522 C   0  0  0  0  0  0  0  0  0  0  0  0
  -11.5027  -16.2965   43.9526 C   0  0  0  0  0  0  0  0  0  0  0  0
  2  1  1  6
  2  3  1  0
  3  4  1  0
  4  5  2  0
  4  6  1  0
  6  7  1  0
  7  8  2  0
  8  9  1  0
  9 10  1  0
  9 11  1  0
 11 12  1  0
  2 13  1  0
 13 14  1  0
 14 15  1  0
 15 16  1  0
 16 17  1  0
 11  6  2  0
 17 13  1  0
M  END
>  <inchikey>  (1290) 
KWZNHHJPWFNBKZ-UHFFFAOYSA-N

>  <tags>  (1290) 
fragmenstein_placed,CpKRS_FrAncestor_bulkdock_iter2

>  <ref_pdb>  (1290) 
x0504a

>  <energy_score>  (1290) 
-12.744625

>  <distance_score>  (1290) 
0.393831

>  <HIPPO Pose ID>  (1290) 
59621

>  <ref_mols>  (1290) 
x0502b

>  <smiles>  (1290) 
C[C@H](NC(=O)c1cnn(C)c1Cl)C1CCCC1

>  <HIPPO Compound ID>  (1290) 
166995

>  <alias>  (1290) 
KWZNHHJPWFNBKZ-QMMMGPOBSA-N-P44

>  <subsites>  (1290) 


>  <placement_batch>  (1290) 
CpKRS_FrAncestor_bulkdock_iter2

>  <name>  (1290) 
KWZNHHJPWFNBKZ-QMMMGPOBSA-N-P44

$$$$
XINFLHXGJJZIGJ-QMMMGPOBSA-N-P44
     RDKit          3D

 17 18  0  0  0  0  0  0  0  0999 V2000
  -14.0297  -14.2049   46.2383 C   0  0  0  0  0  0  0  0  0  0  0  0
  -12.7529  -14.9773   45.9046 C   0  0  2  0  0  0  0  0  0  0  0  0
  -11.6257  -14.2793   46.5072 N   0  0  0  0  0  0  0  0  0  0  0  0
  -11.0368  -12.8874   46.2113 C   0  0  0  0  0  0  0  0  0  0  0  0
  -11.4067  -12.0481   45.4922 O   0  0  0  0  0  0  0  0  0  0  0  0
   -9.8640  -12.6181   47.0402 C   0  0  0  0  0  0  0  0  0  0  0  0
   -9.0252  -11.4747   46.9555 C   0  0  0  0  0  0  0  0  0  0  0  0
   -8.0452  -11.4608   47.8665 N   0  0  0  0  0  0  0  0  0  0  0  0
   -8.2291  -12.6243   48.5251 N   0  0  0  0  0  0  0  0  0  0  0  0
   -7.3408  -12.9966   49.5972 C   0  0  0  0  0  0  0  0  0  0  0  0
   -9.3130  -13.3236   48.0858 C   0  0  0  0  0  0  0  0  0  0  0  0
   -9.7525  -14.4840   48.5957 F   0  0  0  0  0  0  0  0  0  0  0  0
  -12.5370  -15.1685   44.3791 C   0  0  0  0  0  0  0  0  0  0  0  0
  -13.7480  -15.6897   43.5983 C   0  0  0  0  0  0  0  0  0  0  0  0
  -13.7374  -17.1852   43.8589 C   0  0  0  0  0  0  0  0  0  0  0  0
  -12.2614  -17.5555   43.8521 C   0  0  0  0  0  0  0  0  0  0  0  0
  -11.4899  -16.2569   44.0962 C   0  0  0  0  0  0  0  0  0  0  0  0
  2  1  1  6
  2  3  1  0
  3  4  1  0
  4  5  2  0
  4  6  1  0
  6  7  1  0
  7  8  2  0
  8  9  1  0
  9 10  1  0
  9 11  1  0
 11 12  1  0
  2 13  1  0
 13 14  1  0
 14 15  1  0
 15 16  1  0
 16 17  1  0
 11  6  2  0
 17 13  1  0
M  END
>  <inchikey>  (1291) 
XINFLHXGJJZIGJ-UHFFFAOYSA-N

>  <tags>  (1291) 
fragmenstein_placed,CpKRS_FrAncestor_bulkdock_iter2

>  <ref_pdb>  (1291) 
x0504a

>  <energy_score>  (1291) 
-7.167196

>  <distance_score>  (1291) 
0.389396

>  <HIPPO Pose ID>  (1291) 
59624

>  <ref_mols>  (1291) 
x0502b

>  <smiles>  (1291) 
C[C@H](NC(=O)c1cnn(C)c1F)C1CCCC1

>  <HIPPO Compound ID>  (1291) 
241445

>  <alias>  (1291) 
XINFLHXGJJZIGJ-QMMMGPOBSA-N-P44

>  <subsites>  (1291) 


>  <placement_batch>  (1291) 
CpKRS_FrAncestor_bulkdock_iter2

>  <name>  (1291) 
XINFLHXGJJZIGJ-QMMMGPOBSA-N-P44

$$$$
YCJQJUSMBRHFKY-ZETCQYMHSA-N-P44
     RDKit          3D

 16 17  0  0  0  0  0  0  0  0999 V2000
  -13.9085  -14.2663   46.2466 C   0  0  0  0  0  0  0  0  0  0  0  0
  -12.6576  -15.0292   45.8124 C   0  0  2  0  0  0  0  0  0  0  0  0
  -11.4864  -14.3450   46.3385 N   0  0  0  0  0  0  0  0  0  0  0  0
  -10.9782  -12.9122   46.1067 C   0  0  0  0  0  0  0  0  0  0  0  0
  -11.3734  -12.0764   45.3979 O   0  0  0  0  0  0  0  0  0  0  0  0
   -9.8220  -12.6016   46.9567 C   0  0  0  0  0  0  0  0  0  0  0  0
   -8.9830  -11.4640   46.7790 C   0  0  0  0  0  0  0  0  0  0  0  0
   -8.0044  -11.3715   47.6838 N   0  0  0  0  0  0  0  0  0  0  0  0
   -8.1832  -12.4720   48.4299 N   0  0  0  0  0  0  0  0  0  0  0  0
   -9.2780  -13.2046   48.0739 C   0  0  0  0  0  0  0  0  0  0  0  0
   -9.8316  -14.7350   49.0507 Br  0  0  0  0  0  0  0  0  0  0  0  0
  -12.5386  -15.1985   44.2754 C   0  0  0  0  0  0  0  0  0  0  0  0
  -11.5141  -16.2877   43.9179 C   0  0  0  0  0  0  0  0  0  0  0  0
  -12.3045  -17.5833   43.7254 C   0  0  0  0  0  0  0  0  0  0  0  0
  -13.7767  -17.2054   43.8085 C   0  0  0  0  0  0  0  0  0  0  0  0
  -13.7957  -15.7072   43.5644 C   0  0  0  0  0  0  0  0  0  0  0  0
  2  1  1  6
  2  3  1  0
  3  4  1  0
  4  5  2  0
  4  6  1  0
  6  7  1  0
  7  8  2  0
  8  9  1  0
  9 10  1  0
 10 11  1  0
  2 12  1  0
 12 13  1  0
 13 14  1  0
 14 15  1  0
 15 16  1  0
 10  6  2  0
 16 12  1  0
M  END
>  <inchikey>  (1292) 
YCJQJUSMBRHFKY-UHFFFAOYSA-N

>  <tags>  (1292) 
fragmenstein_placed,CpKRS_FrAncestor_bulkdock_iter2

>  <ref_pdb>  (1292) 
x0504a

>  <energy_score>  (1292) 
-5.999021

>  <distance_score>  (1292) 
0.374009

>  <HIPPO Pose ID>  (1292) 
59627

>  <ref_mols>  (1292) 
x0502b

>  <smiles>  (1292) 
C[C@H](NC(=O)c1cn[nH]c1Br)C1CCCC1

>  <HIPPO Compound ID>  (1292) 
451858

>  <alias>  (1292) 
YCJQJUSMBRHFKY-ZETCQYMHSA-N-P44

>  <subsites>  (1292) 


>  <placement_batch>  (1292) 
CpKRS_FrAncestor_bulkdock_iter2

>  <name>  (1292) 
YCJQJUSMBRHFKY-ZETCQYMHSA-N-P44

$$$$
IHLQDFLYJUDEMA-QMMMGPOBSA-N-P44
     RDKit          3D

 15 16  0  0  0  0  0  0  0  0999 V2000
  -14.0680  -14.0474   45.9443 C   0  0  0  0  0  0  0  0  0  0  0  0
  -12.8130  -14.8877   45.7060 C   0  0  2  0  0  0  0  0  0  0  0  0
  -11.6846  -14.2140   46.3303 N   0  0  0  0  0  0  0  0  0  0  0  0
  -11.0198  -12.8619   46.0038 C   0  0  0  0  0  0  0  0  0  0  0  0
  -11.3190  -12.0396   45.2333 O   0  0  0  0  0  0  0  0  0  0  0  0
   -9.8918  -12.5899   46.9092 C   0  0  0  0  0  0  0  0  0  0  0  0
   -9.3915  -13.2545   48.0564 C   0  0  0  0  0  0  0  0  0  0  0  0
   -8.3692  -12.6136   48.6338 N   0  0  0  0  0  0  0  0  0  0  0  0
   -8.1609  -11.5676   47.8235 N   0  0  0  0  0  0  0  0  0  0  0  0
   -9.0536  -11.4918   46.8003 C   0  0  0  0  0  0  0  0  0  0  0  0
  -12.5364  -15.1595   44.2046 C   0  0  0  0  0  0  0  0  0  0  0  0
  -11.4984  -16.2787   44.0214 C   0  0  0  0  0  0  0  0  0  0  0  0
  -12.2840  -17.5731   43.8001 C   0  0  0  0  0  0  0  0  0  0  0  0
  -13.7528  -17.1796   43.7432 C   0  0  0  0  0  0  0  0  0  0  0  0
  -13.7270  -15.6998   43.4059 C   0  0  0  0  0  0  0  0  0  0  0  0
  2  1  1  6
  2  3  1  0
  3  4  1  0
  4  5  2  0
  4  6  1  0
  6  7  1  0
  7  8  2  0
  8  9  1  0
  9 10  1  0
  2 11  1  0
 11 12  1  0
 12 13  1  0
 13 14  1  0
 14 15  1  0
 10  6  2  0
 15 11  1  0
M  END
>  <inchikey>  (1293) 
IHLQDFLYJUDEMA-UHFFFAOYSA-N

>  <tags>  (1293) 
fragmenstein_placed,CpKRS_FrAncestor_bulkdock_iter2

>  <ref_pdb>  (1293) 
x0504a

>  <energy_score>  (1293) 
-4.988786

>  <distance_score>  (1293) 
0.453253

>  <HIPPO Pose ID>  (1293) 
59630

>  <ref_mols>  (1293) 
x0502b

>  <smiles>  (1293) 
C[C@H](NC(=O)c1cn[nH]c1)C1CCCC1

>  <HIPPO Compound ID>  (1293) 
451859

>  <alias>  (1293) 
IHLQDFLYJUDEMA-QMMMGPOBSA-N-P44

>  <subsites>  (1293) 


>  <placement_batch>  (1293) 
CpKRS_FrAncestor_bulkdock_iter2

>  <name>  (1293) 
IHLQDFLYJUDEMA-QMMMGPOBSA-N-P44

$$$$
DQBKZEHZSJLVSH-ZETCQYMHSA-N-P45
     RDKit          3D

 19 20  0  0  0  0  0  0  0  0999 V2000
    4.8703  -12.4280   22.3928 C   0  0  0  0  0  0  0  0  0  0  0  0
    4.8008  -11.5139   23.6016 C   0  0  2  0  0  0  0  0  0  0  0  0
    3.9874  -12.1723   24.5958 N   0  0  0  0  0  0  0  0  0  0  0  0
    4.2435  -13.4566   25.4076 C   0  0  0  0  0  0  0  0  0  0  0  0
    5.1831  -14.1426   25.4580 O   0  0  0  0  0  0  0  0  0  0  0  0
    3.0730  -13.8070   26.2216 C   0  0  0  0  0  0  0  0  0  0  0  0
    1.7782  -13.2364   26.3203 C   0  0  0  0  0  0  0  0  0  0  0  0
    0.9875  -13.8588   27.2020 N   0  0  0  0  0  0  0  0  0  0  0  0
    1.7833  -14.8353   27.6760 N   0  0  0  0  0  0  0  0  0  0  0  0
    3.0239  -14.8592   27.1229 C   0  0  0  0  0  0  0  0  0  0  0  0
    3.9796  -15.8938   27.5448 C   0  0  0  0  0  0  0  0  0  0  0  0
    5.2250  -15.4374   27.8076 F   0  0  0  0  0  0  0  0  0  0  0  0
    4.0963  -16.9091   26.6683 F   0  0  0  0  0  0  0  0  0  0  0  0
    3.5449  -16.4634   28.7152 F   0  0  0  0  0  0  0  0  0  0  0  0
    4.2812  -10.1175   23.2361 C   0  0  0  0  0  0  0  0  0  0  0  0
    4.4549   -9.1074   24.3865 C   0  0  0  0  0  0  0  0  0  0  0  0
    5.3943   -8.0326   23.8569 C   0  0  0  0  0  0  0  0  0  0  0  0
    5.0903   -8.0128   22.3737 C   0  0  0  0  0  0  0  0  0  0  0  0
    5.0233   -9.4877   22.0419 C   0  0  0  0  0  0  0  0  0  0  0  0
  2  1  1  6
  2  3  1  0
  3  4  1  0
  4  5  2  0
  4  6  1  0
  6  7  1  0
  7  8  2  0
  8  9  1  0
  9 10  1  0
 10 11  1  0
 11 12  1  0
 11 13  1  0
 11 14  1  0
  2 15  1  0
 15 16  1  0
 16 17  1  0
 17 18  1  0
 18 19  1  0
 10  6  2  0
 19 15  1  0
M  END
>  <inchikey>  (1294) 
DQBKZEHZSJLVSH-UHFFFAOYSA-N

>  <tags>  (1294) 
fragmenstein_placed,CpKRS_FrAncestor_bulkdock_iter2

>  <ref_pdb>  (1294) 
x0504a

>  <energy_score>  (1294) 
-25.676008

>  <distance_score>  (1294) 
0.593784

>  <HIPPO Pose ID>  (1294) 
59632

>  <ref_mols>  (1294) 
x0502a

>  <smiles>  (1294) 
C[C@H](NC(=O)c1cn[nH]c1C(F)(F)F)C1CCCC1

>  <HIPPO Compound ID>  (1294) 
424849

>  <alias>  (1294) 
DQBKZEHZSJLVSH-ZETCQYMHSA-N-P45

>  <subsites>  (1294) 


>  <placement_batch>  (1294) 
CpKRS_FrAncestor_bulkdock_iter2

>  <name>  (1294) 
DQBKZEHZSJLVSH-ZETCQYMHSA-N-P45

$$$$
LDKGDGCVSORNCG-ZETCQYMHSA-N-P44
     RDKit          3D

 16 17  0  0  0  0  0  0  0  0999 V2000
  -14.0764  -14.1049   46.0844 C   0  0  0  0  0  0  0  0  0  0  0  0
  -12.8116  -14.9131   45.7948 C   0  0  2  0  0  0  0  0  0  0  0  0
  -11.6780  -14.2328   46.4012 N   0  0  0  0  0  0  0  0  0  0  0  0
  -11.0726  -12.8468   46.1136 C   0  0  0  0  0  0  0  0  0  0  0  0
  -11.4322  -11.9993   45.3994 O   0  0  0  0  0  0  0  0  0  0  0  0
   -9.8979  -12.5890   46.9487 C   0  0  0  0  0  0  0  0  0  0  0  0
   -9.0251  -11.4708   46.8227 C   0  0  0  0  0  0  0  0  0  0  0  0
   -8.0402  -11.4517   47.7291 N   0  0  0  0  0  0  0  0  0  0  0  0
   -8.2490  -12.5854   48.4228 N   0  0  0  0  0  0  0  0  0  0  0  0
   -9.3597  -13.2578   48.0212 C   0  0  0  0  0  0  0  0  0  0  0  0
   -9.7738  -14.6519   48.8958 Cl  0  0  0  0  0  0  0  0  0  0  0  0
  -12.5669  -15.1463   44.2809 C   0  0  0  0  0  0  0  0  0  0  0  0
  -11.5087  -16.2372   44.0476 C   0  0  0  0  0  0  0  0  0  0  0  0
  -12.2693  -17.5446   43.8163 C   0  0  0  0  0  0  0  0  0  0  0  0
  -13.7475  -17.1835   43.7989 C   0  0  0  0  0  0  0  0  0  0  0  0
  -13.7637  -15.6955   43.4982 C   0  0  0  0  0  0  0  0  0  0  0  0
  2  1  1  6
  2  3  1  0
  3  4  1  0
  4  5  2  0
  4  6  1  0
  6  7  1  0
  7  8  2  0
  8  9  1  0
  9 10  1  0
 10 11  1  0
  2 12  1  0
 12 13  1  0
 13 14  1  0
 14 15  1  0
 15 16  1  0
 10  6  2  0
 16 12  1  0
M  END
>  <inchikey>  (1295) 
LDKGDGCVSORNCG-UHFFFAOYSA-N

>  <tags>  (1295) 
fragmenstein_placed,CpKRS_FrAncestor_bulkdock_iter2

>  <ref_pdb>  (1295) 
x0504a

>  <energy_score>  (1295) 
-16.514262

>  <distance_score>  (1295) 
0.397114

>  <HIPPO Pose ID>  (1295) 
59636

>  <ref_mols>  (1295) 
x0502b

>  <smiles>  (1295) 
C[C@H](NC(=O)c1cn[nH]c1Cl)C1CCCC1

>  <HIPPO Compound ID>  (1295) 
451860

>  <alias>  (1295) 
LDKGDGCVSORNCG-ZETCQYMHSA-N-P44

>  <subsites>  (1295) 


>  <placement_batch>  (1295) 
CpKRS_FrAncestor_bulkdock_iter2

>  <name>  (1295) 
LDKGDGCVSORNCG-ZETCQYMHSA-N-P44

$$$$
NRXCAOJRHZBKSI-ZETCQYMHSA-N-P44
     RDKit          3D

 16 17  0  0  0  0  0  0  0  0999 V2000
  -14.0531  -14.2387   46.2434 C   0  0  0  0  0  0  0  0  0  0  0  0
  -12.7765  -15.0022   45.8909 C   0  0  2  0  0  0  0  0  0  0  0  0
  -11.6449  -14.3110   46.4902 N   0  0  0  0  0  0  0  0  0  0  0  0
  -11.0715  -12.9072   46.2184 C   0  0  0  0  0  0  0  0  0  0  0  0
  -11.4605  -12.0534   45.5269 O   0  0  0  0  0  0  0  0  0  0  0  0
   -9.8924  -12.6460   47.0409 C   0  0  0  0  0  0  0  0  0  0  0  0
   -9.0456  -11.5079   46.9586 C   0  0  0  0  0  0  0  0  0  0  0  0
   -8.0525  -11.5150   47.8561 N   0  0  0  0  0  0  0  0  0  0  0  0
   -8.2326  -12.6861   48.4953 N   0  0  0  0  0  0  0  0  0  0  0  0
   -9.3340  -13.3642   48.0723 C   0  0  0  0  0  0  0  0  0  0  0  0
   -9.7700  -14.5247   48.5823 F   0  0  0  0  0  0  0  0  0  0  0  0
  -12.5687  -15.1746   44.3625 C   0  0  0  0  0  0  0  0  0  0  0  0
  -11.5084  -16.2459   44.0618 C   0  0  0  0  0  0  0  0  0  0  0  0
  -12.2644  -17.5538   43.8189 C   0  0  0  0  0  0  0  0  0  0  0  0
  -13.7453  -17.2028   43.8329 C   0  0  0  0  0  0  0  0  0  0  0  0
  -13.7778  -15.7053   43.5860 C   0  0  0  0  0  0  0  0  0  0  0  0
  2  1  1  6
  2  3  1  0
  3  4  1  0
  4  5  2  0
  4  6  1  0
  6  7  1  0
  7  8  2  0
  8  9  1  0
  9 10  1  0
 10 11  1  0
  2 12  1  0
 12 13  1  0
 13 14  1  0
 14 15  1  0
 15 16  1  0
 10  6  2  0
 16 12  1  0
M  END
>  <inchikey>  (1296) 
NRXCAOJRHZBKSI-UHFFFAOYSA-N

>  <tags>  (1296) 
fragmenstein_placed,CpKRS_FrAncestor_bulkdock_iter2

>  <ref_pdb>  (1296) 
x0504a

>  <energy_score>  (1296) 
-2.282285

>  <distance_score>  (1296) 
0.379972

>  <HIPPO Pose ID>  (1296) 
59639

>  <ref_mols>  (1296) 
x0502b

>  <smiles>  (1296) 
C[C@H](NC(=O)c1cn[nH]c1F)C1CCCC1

>  <HIPPO Compound ID>  (1296) 
451861

>  <alias>  (1296) 
NRXCAOJRHZBKSI-ZETCQYMHSA-N-P44

>  <subsites>  (1296) 


>  <placement_batch>  (1296) 
CpKRS_FrAncestor_bulkdock_iter2

>  <name>  (1296) 
NRXCAOJRHZBKSI-ZETCQYMHSA-N-P44

$$$$
UDSVRIXBOYYEGR-QMMMGPOBSA-N-P44
     RDKit          3D

 15 16  0  0  0  0  0  0  0  0999 V2000
  -14.0290  -14.3247   46.1732 C   0  0  0  0  0  0  0  0  0  0  0  0
  -12.7361  -15.0504   45.7995 C   0  0  2  0  0  0  0  0  0  0  0  0
  -11.6176  -14.3314   46.3926 N   0  0  0  0  0  0  0  0  0  0  0  0
  -11.0996  -12.9011   46.1406 C   0  0  0  0  0  0  0  0  0  0  0  0
  -11.5326  -12.0472   45.4754 O   0  0  0  0  0  0  0  0  0  0  0  0
   -9.9202  -12.5906   46.9729 C   0  0  0  0  0  0  0  0  0  0  0  0
   -9.3753  -13.2683   48.1147 C   0  0  0  0  0  0  0  0  0  0  0  0
   -8.3382  -12.7096   48.7377 N   0  0  0  0  0  0  0  0  0  0  0  0
   -7.9354  -11.3237   47.9301 S   0  0  0  0  0  0  0  0  0  0  0  0
   -9.1612  -11.4480   46.7518 C   0  0  0  0  0  0  0  0  0  0  0  0
  -12.5388  -15.2073   44.2694 C   0  0  0  0  0  0  0  0  0  0  0  0
  -11.4974  -16.2931   43.9571 C   0  0  0  0  0  0  0  0  0  0  0  0
  -12.2777  -17.5897   43.7301 C   0  0  0  0  0  0  0  0  0  0  0  0
  -13.7525  -17.2122   43.7377 C   0  0  0  0  0  0  0  0  0  0  0  0
  -13.7575  -15.7142   43.4921 C   0  0  0  0  0  0  0  0  0  0  0  0
  2  1  1  6
  2  3  1  0
  3  4  1  0
  4  5  2  0
  4  6  1  0
  6  7  1  0
  7  8  2  0
  8  9  1  0
  9 10  1  0
  2 11  1  0
 11 12  1  0
 12 13  1  0
 13 14  1  0
 14 15  1  0
 10  6  2  0
 15 11  1  0
M  END
>  <inchikey>  (1297) 
UDSVRIXBOYYEGR-UHFFFAOYSA-N

>  <tags>  (1297) 
fragmenstein_placed,CpKRS_FrAncestor_bulkdock_iter2

>  <ref_pdb>  (1297) 
x0504a

>  <energy_score>  (1297) 
-8.888911

>  <distance_score>  (1297) 
0.379265

>  <HIPPO Pose ID>  (1297) 
59642

>  <ref_mols>  (1297) 
x0502b

>  <smiles>  (1297) 
C[C@H](NC(=O)c1cnsc1)C1CCCC1

>  <HIPPO Compound ID>  (1297) 
451862

>  <alias>  (1297) 
UDSVRIXBOYYEGR-QMMMGPOBSA-N-P44

>  <subsites>  (1297) 


>  <placement_batch>  (1297) 
CpKRS_FrAncestor_bulkdock_iter2

>  <name>  (1297) 
UDSVRIXBOYYEGR-QMMMGPOBSA-N-P44

$$$$
ALHCQYVFOLBRBW-ZCFIWIBFSA-N-P49
     RDKit          3D

 16 16  0  0  0  0  0  0  0  0999 V2000
    4.4469  -11.5265   22.0603 C   0  0  0  0  0  0  0  0  0  0  0  0
    3.8671  -10.7291   23.2262 C   0  0  1  0  0  0  0  0  0  0  0  0
    3.2801  -11.6493   24.1954 N   0  0  0  0  0  0  0  0  0  0  0  0
    3.7418  -13.0462   24.6569 C   0  0  0  0  0  0  0  0  0  0  0  0
    4.6186  -13.7132   24.2806 O   0  0  0  0  0  0  0  0  0  0  0  0
    2.8435  -13.5772   25.7003 C   0  0  0  0  0  0  0  0  0  0  0  0
    1.5322  -13.1865   26.0899 C   0  0  0  0  0  0  0  0  0  0  0  0
    1.0161  -13.9225   27.0846 N   0  0  0  0  0  0  0  0  0  0  0  0
    2.0142  -14.7915   27.3561 N   0  0  0  0  0  0  0  0  0  0  0  0
    1.8581  -15.7530   28.4187 C   0  0  0  0  0  0  0  0  0  0  0  0
    3.0932  -14.6548   26.5332 C   0  0  0  0  0  0  0  0  0  0  0  0
    4.6501  -15.7547   26.5787 Br  0  0  0  0  0  0  0  0  0  0  0  0
    4.9160   -9.7703   23.8489 C   0  0  0  0  0  0  0  0  0  0  0  0
    4.2899   -8.8808   24.9154 C   0  0  0  0  0  0  0  0  0  0  0  0
    5.5968   -8.8758   22.8125 C   0  0  0  0  0  0  0  0  0  0  0  0
    5.8921  -10.5049   24.4533 F   0  0  0  0  0  0  0  0  0  0  0  0
  2  1  1  6
  2  3  1  0
  3  4  1  0
  4  5  2  0
  4  6  1  0
  6  7  1  0
  7  8  2  0
  8  9  1  0
  9 10  1  0
  9 11  1  0
 11 12  1  0
  2 13  1  0
 13 14  1  0
 13 15  1  0
 13 16  1  0
 11  6  2  0
M  END
>  <inchikey>  (1298) 
ALHCQYVFOLBRBW-UHFFFAOYSA-N

>  <tags>  (1298) 
fragmenstein_placed,CpKRS_FrAncestor_bulkdock_iter2

>  <ref_pdb>  (1298) 
x0504a

>  <energy_score>  (1298) 
-11.546799

>  <distance_score>  (1298) 
0.540751

>  <HIPPO Pose ID>  (1298) 
59648

>  <ref_mols>  (1298) 
x0504b

>  <smiles>  (1298) 
C[C@@H](NC(=O)c1cnn(C)c1Br)C(C)(C)F

>  <HIPPO Compound ID>  (1298) 
451863

>  <alias>  (1298) 
ALHCQYVFOLBRBW-ZCFIWIBFSA-N-P49

>  <subsites>  (1298) 


>  <placement_batch>  (1298) 
CpKRS_FrAncestor_bulkdock_iter2

>  <name>  (1298) 
ALHCQYVFOLBRBW-ZCFIWIBFSA-N-P49

$$$$
DYJAZTXWVJHYJU-ZCFIWIBFSA-N-P49
     RDKit          3D

 16 16  0  0  0  0  0  0  0  0999 V2000
    4.6119  -11.5808   22.0136 C   0  0  0  0  0  0  0  0  0  0  0  0
    3.9402  -10.8031   23.1389 C   0  0  1  0  0  0  0  0  0  0  0  0
    3.3604  -11.7525   24.0806 N   0  0  0  0  0  0  0  0  0  0  0  0
    3.9909  -12.9625   24.7987 C   0  0  0  0  0  0  0  0  0  0  0  0
    5.0493  -13.4355   24.6918 O   0  0  0  0  0  0  0  0  0  0  0  0
    3.0291  -13.5856   25.7258 C   0  0  0  0  0  0  0  0  0  0  0  0
    1.7414  -13.1851   26.1800 C   0  0  0  0  0  0  0  0  0  0  0  0
    1.1798  -14.0344   27.0545 N   0  0  0  0  0  0  0  0  0  0  0  0
    2.1446  -14.9709   27.2187 N   0  0  0  0  0  0  0  0  0  0  0  0
    1.9374  -16.0462   28.1561 C   0  0  0  0  0  0  0  0  0  0  0  0
    3.2284  -14.7591   26.4229 C   0  0  0  0  0  0  0  0  0  0  0  0
    4.5212  -15.8733   26.4451 Cl  0  0  0  0  0  0  0  0  0  0  0  0
    4.9021   -9.7857   23.8083 C   0  0  0  0  0  0  0  0  0  0  0  0
    5.5562   -8.8381   22.8033 C   0  0  0  0  0  0  0  0  0  0  0  0
    4.1804   -8.9578   24.8640 C   0  0  0  0  0  0  0  0  0  0  0  0
    5.9058  -10.4586   24.4385 F   0  0  0  0  0  0  0  0  0  0  0  0
  2  1  1  6
  2  3  1  0
  3  4  1  0
  4  5  2  0
  4  6  1  0
  6  7  1  0
  7  8  2  0
  8  9  1  0
  9 10  1  0
  9 11  1  0
 11 12  1  0
  2 13  1  0
 13 14  1  0
 13 15  1  0
 13 16  1  0
 11  6  2  0
M  END
>  <inchikey>  (1299) 
DYJAZTXWVJHYJU-UHFFFAOYSA-N

>  <tags>  (1299) 
fragmenstein_placed,CpKRS_FrAncestor_bulkdock_iter2

>  <ref_pdb>  (1299) 
x0504a

>  <energy_score>  (1299) 
-10.728286

>  <distance_score>  (1299) 
0.489057

>  <HIPPO Pose ID>  (1299) 
59654

>  <ref_mols>  (1299) 
x0504b

>  <smiles>  (1299) 
C[C@@H](NC(=O)c1cnn(C)c1Cl)C(C)(C)F

>  <HIPPO Compound ID>  (1299) 
451864

>  <alias>  (1299) 
DYJAZTXWVJHYJU-ZCFIWIBFSA-N-P49

>  <subsites>  (1299) 


>  <placement_batch>  (1299) 
CpKRS_FrAncestor_bulkdock_iter2

>  <name>  (1299) 
DYJAZTXWVJHYJU-ZCFIWIBFSA-N-P49

$$$$
LYWVVUHQIIYENV-RXMQYKEDSA-N-P49
     RDKit          3D

 15 15  0  0  0  0  0  0  0  0999 V2000
    4.5364  -11.6817   22.1139 C   0  0  0  0  0  0  0  0  0  0  0  0
    3.9415  -10.8186   23.2211 C   0  0  1  0  0  0  0  0  0  0  0  0
    3.3547  -11.6734   24.2432 N   0  0  0  0  0  0  0  0  0  0  0  0
    3.8628  -12.9886   24.8584 C   0  0  0  0  0  0  0  0  0  0  0  0
    4.8668  -13.5568   24.7011 O   0  0  0  0  0  0  0  0  0  0  0  0
    2.8902  -13.5738   25.8053 C   0  0  0  0  0  0  0  0  0  0  0  0
    3.2500  -14.6887   26.6579 C   0  0  0  0  0  0  0  0  0  0  0  0
    2.3365  -15.1664   27.5008 N   0  0  0  0  0  0  0  0  0  0  0  0
    0.9591  -14.2818   27.2996 S   0  0  0  0  0  0  0  0  0  0  0  0
    1.5709  -13.2610   26.0797 C   0  0  0  0  0  0  0  0  0  0  0  0
    0.4421  -11.9314   25.2975 Br  0  0  0  0  0  0  0  0  0  0  0  0
    4.9567   -9.7970   23.7960 C   0  0  0  0  0  0  0  0  0  0  0  0
    4.3092   -8.8960   24.8410 C   0  0  0  0  0  0  0  0  0  0  0  0
    5.5823   -8.9151   22.7158 C   0  0  0  0  0  0  0  0  0  0  0  0
    5.9712  -10.4660   24.4127 F   0  0  0  0  0  0  0  0  0  0  0  0
  2  1  1  6
  2  3  1  0
  3  4  1  0
  4  5  2  0
  4  6  1  0
  6  7  1  0
  7  8  2  0
  8  9  1  0
  9 10  1  0
 10 11  1  0
  2 12  1  0
 12 13  1  0
 12 14  1  0
 12 15  1  0
 10  6  2  0
M  END
>  <inchikey>  (1300) 
LYWVVUHQIIYENV-UHFFFAOYSA-N

>  <tags>  (1300) 
fragmenstein_placed,CpKRS_FrAncestor_bulkdock_iter2

>  <ref_pdb>  (1300) 
x0504a

>  <energy_score>  (1300) 
-16.532962

>  <distance_score>  (1300) 
0.507765

>  <HIPPO Pose ID>  (1300) 
59666

>  <ref_mols>  (1300) 
x0504b

>  <smiles>  (1300) 
C[C@@H](NC(=O)c1cnsc1Br)C(C)(C)F

>  <HIPPO Compound ID>  (1300) 
451866

>  <alias>  (1300) 
LYWVVUHQIIYENV-RXMQYKEDSA-N-P49

>  <subsites>  (1300) 


>  <placement_batch>  (1300) 
CpKRS_FrAncestor_bulkdock_iter2

>  <name>  (1300) 
LYWVVUHQIIYENV-RXMQYKEDSA-N-P49

$$$$
HZXLHDRBDUGIQJ-ZCFIWIBFSA-N-P55
     RDKit          3D

 19 20  0  0  0  0  0  0  0  0999 V2000
    4.7767  -12.3459   21.9885 C   0  0  0  0  0  0  0  0  0  0  0  0
    3.8030  -11.5509   22.8313 C   0  0  1  0  0  0  0  0  0  0  0  0
    3.4082  -12.3532   23.9633 N   0  0  0  0  0  0  0  0  0  0  0  0
    4.2195  -13.3349   24.8226 C   0  0  0  0  0  0  0  0  0  0  0  0
    5.3156  -13.7111   24.7073 O   0  0  0  0  0  0  0  0  0  0  0  0
    3.3809  -13.9226   25.8866 C   0  0  0  0  0  0  0  0  0  0  0  0
    2.0448  -13.7081   26.1934 C   0  0  0  0  0  0  0  0  0  0  0  0
    1.7114  -14.4844   27.2755 N   0  0  0  0  0  0  0  0  0  0  0  0
    2.8118  -15.1832   27.6968 C   0  0  0  0  0  0  0  0  0  0  0  0
    2.7704  -16.0154   28.9054 C   0  0  0  0  0  0  0  0  0  0  0  0
    3.4953  -15.4889   29.9156 F   0  0  0  0  0  0  0  0  0  0  0  0
    1.5030  -16.1399   29.3848 F   0  0  0  0  0  0  0  0  0  0  0  0
    3.2313  -17.2701   28.7075 F   0  0  0  0  0  0  0  0  0  0  0  0
    3.8392  -14.9009   26.8237 C   0  0  0  0  0  0  0  0  0  0  0  0
    4.3602  -10.2153   23.2363 C   0  0  0  0  0  0  0  0  0  0  0  0
    4.1643   -9.6287   24.4010 N   0  0  0  0  0  0  0  0  0  0  0  0
    4.8656   -8.4433   24.4541 C   0  0  0  0  0  0  0  0  0  0  0  0
    5.5151   -8.0855   23.2970 C   0  0  0  0  0  0  0  0  0  0  0  0
    5.2456   -9.2587   22.0918 S   0  0  0  0  0  0  0  0  0  0  0  0
  2  1  1  1
  2  3  1  0
  3  4  1  0
  4  5  2  0
  4  6  1  0
  6  7  2  0
  7  8  1  0
  8  9  1  0
  9 10  1  0
 10 11  1  0
 10 12  1  0
 10 13  1  0
  9 14  2  0
  2 15  1  0
 15 16  2  0
 16 17  1  0
 17 18  2  0
 18 19  1  0
 14  6  1  0
 19 15  1  0
M  END
>  <inchikey>  (1301) 
HZXLHDRBDUGIQJ-UHFFFAOYSA-N

>  <tags>  (1301) 
fragmenstein_placed,CpKRS_FrAncestor_bulkdock_iter2

>  <ref_pdb>  (1301) 
x0504a

>  <energy_score>  (1301) 
-44.205344

>  <distance_score>  (1301) 
0.747659

>  <HIPPO Pose ID>  (1301) 
59668

>  <ref_mols>  (1301) 
x0646a

>  <smiles>  (1301) 
C[C@@H](NC(=O)c1c[nH]c(C(F)(F)F)c1)c1nccs1

>  <HIPPO Compound ID>  (1301) 
433078

>  <alias>  (1301) 
HZXLHDRBDUGIQJ-ZCFIWIBFSA-N-P55

>  <subsites>  (1301) 


>  <placement_batch>  (1301) 
CpKRS_FrAncestor_bulkdock_iter2

>  <name>  (1301) 
HZXLHDRBDUGIQJ-ZCFIWIBFSA-N-P55

$$$$
RKSKNXSFVZTFAM-LURJTMIESA-N-P64
     RDKit          3D

 16 17  0  0  0  0  0  0  0  0999 V2000
    5.5091  -14.2888   24.0326 C   0  0  0  0  0  0  0  0  0  0  0  0
    4.1867  -13.5453   24.0992 C   0  0  2  0  0  0  0  0  0  0  0  0
    4.4435  -12.1374   23.9023 N   0  0  0  0  0  0  0  0  0  0  0  0
    4.5973  -11.3229   22.6099 C   0  0  0  0  0  0  0  0  0  0  0  0
    4.4658  -11.6402   21.4991 O   0  0  0  0  0  0  0  0  0  0  0  0
    4.9966   -9.9381   22.8692 C   0  0  0  0  0  0  0  0  0  0  0  0
    4.9786   -8.8834   21.9223 C   0  0  0  0  0  0  0  0  0  0  0  0
    5.3695   -7.7112   22.4285 N   0  0  0  0  0  0  0  0  0  0  0  0
    5.7700   -8.0314   23.6703 N   0  0  0  0  0  0  0  0  0  0  0  0
    5.5332   -9.3393   23.9879 C   0  0  0  0  0  0  0  0  0  0  0  0
    3.3955  -13.7905   25.3618 C   0  0  0  0  0  0  0  0  0  0  0  0
    2.2424  -13.1493   25.7903 C   0  0  0  0  0  0  0  0  0  0  0  0
    1.6907  -13.7361   26.9715 C   0  0  0  0  0  0  0  0  0  0  0  0
    2.4445  -14.7962   27.3979 C   0  0  0  0  0  0  0  0  0  0  0  0
    2.1414  -15.8127   28.7469 Cl  0  0  0  0  0  0  0  0  0  0  0  0
    3.7967  -15.0807   26.4403 S   0  0  0  0  0  0  0  0  0  0  0  0
  2  1  1  1
  2  3  1  0
  3  4  1  0
  4  5  2  0
  4  6  1  0
  6  7  1  0
  7  8  2  0
  8  9  1  0
  9 10  1  0
  2 11  1  0
 11 12  2  0
 12 13  1  0
 13 14  2  0
 14 15  1  0
 14 16  1  0
 10  6  2  0
 16 11  1  0
M  END
>  <inchikey>  (1302) 
RKSKNXSFVZTFAM-UHFFFAOYSA-N

>  <tags>  (1302) 
fragmenstein_placed,CpKRS_FrAncestor_bulkdock_iter2

>  <ref_pdb>  (1302) 
x0504a

>  <energy_score>  (1302) 
-11.86085

>  <distance_score>  (1302) 
0.42412

>  <HIPPO Pose ID>  (1302) 
59673

>  <ref_mols>  (1302) 
x0787b

>  <smiles>  (1302) 
C[C@H](NC(=O)c1cn[nH]c1)c1ccc(Cl)s1

>  <HIPPO Compound ID>  (1302) 
451867

>  <alias>  (1302) 
RKSKNXSFVZTFAM-LURJTMIESA-N-P64

>  <subsites>  (1302) 


>  <placement_batch>  (1302) 
CpKRS_FrAncestor_bulkdock_iter2

>  <name>  (1302) 
RKSKNXSFVZTFAM-LURJTMIESA-N-P64

$$$$
RCXVWVOJBMKCMD-QMMMGPOBSA-N-P44
     RDKit          3D

 15 16  0  0  0  0  0  0  0  0999 V2000
  -14.0023  -14.3004   46.1761 C   0  0  0  0  0  0  0  0  0  0  0  0
  -12.7143  -15.0284   45.7906 C   0  0  2  0  0  0  0  0  0  0  0  0
  -11.5847  -14.3180   46.3730 N   0  0  0  0  0  0  0  0  0  0  0  0
  -11.1163  -12.8548   46.1913 C   0  0  0  0  0  0  0  0  0  0  0  0
  -11.6065  -11.9713   45.6076 O   0  0  0  0  0  0  0  0  0  0  0  0
   -9.8911  -12.5869   46.9780 C   0  0  0  0  0  0  0  0  0  0  0  0
   -9.3637  -13.3021   48.0350 C   0  0  0  0  0  0  0  0  0  0  0  0
   -8.2633  -12.6471   48.5023 O   0  0  0  0  0  0  0  0  0  0  0  0
   -8.1654  -11.5603   47.6942 C   0  0  0  0  0  0  0  0  0  0  0  0
   -9.1022  -11.4576   46.7826 N   0  0  0  0  0  0  0  0  0  0  0  0
  -12.5281  -15.1841   44.2593 C   0  0  0  0  0  0  0  0  0  0  0  0
  -13.7545  -15.6823   43.4888 C   0  0  0  0  0  0  0  0  0  0  0  0
  -13.7569  -17.1812   43.7309 C   0  0  0  0  0  0  0  0  0  0  0  0
  -12.2847  -17.5682   43.7151 C   0  0  0  0  0  0  0  0  0  0  0  0
  -11.4955  -16.2764   43.9385 C   0  0  0  0  0  0  0  0  0  0  0  0
  2  1  1  6
  2  3  1  0
  3  4  1  0
  4  5  2  0
  4  6  1  0
  6  7  2  0
  7  8  1  0
  8  9  1  0
  9 10  2  0
  2 11  1  0
 11 12  1  0
 12 13  1  0
 13 14  1  0
 14 15  1  0
 10  6  1  0
 15 11  1  0
M  END
>  <inchikey>  (1303) 
RCXVWVOJBMKCMD-UHFFFAOYSA-N

>  <tags>  (1303) 
fragmenstein_placed,CpKRS_FrAncestor_bulkdock_iter2

>  <ref_pdb>  (1303) 
x0504a

>  <energy_score>  (1303) 
-14.77305

>  <distance_score>  (1303) 
0.36751

>  <HIPPO Pose ID>  (1303) 
59678

>  <ref_mols>  (1303) 
x0502b

>  <smiles>  (1303) 
C[C@H](NC(=O)c1cocn1)C1CCCC1

>  <HIPPO Compound ID>  (1303) 
451869

>  <alias>  (1303) 
RCXVWVOJBMKCMD-QMMMGPOBSA-N-P44

>  <subsites>  (1303) 


>  <placement_batch>  (1303) 
CpKRS_FrAncestor_bulkdock_iter2

>  <name>  (1303) 
RCXVWVOJBMKCMD-QMMMGPOBSA-N-P44

$$$$
BHUJDWWAOCGCEE-QMMMGPOBSA-N-P44
     RDKit          3D

 15 16  0  0  0  0  0  0  0  0999 V2000
  -14.0673  -13.8829   45.7438 C   0  0  0  0  0  0  0  0  0  0  0  0
  -12.8867  -14.8450   45.6074 C   0  0  2  0  0  0  0  0  0  0  0  0
  -11.7446  -14.2744   46.2976 N   0  0  0  0  0  0  0  0  0  0  0  0
  -10.9131  -13.0188   45.9850 C   0  0  0  0  0  0  0  0  0  0  0  0
  -11.0591  -12.1999   45.1685 O   0  0  0  0  0  0  0  0  0  0  0  0
   -9.8487  -12.9095   47.0012 C   0  0  0  0  0  0  0  0  0  0  0  0
   -8.8850  -11.9166   47.0098 C   0  0  0  0  0  0  0  0  0  0  0  0
   -7.8646  -12.0862   48.3751 S   0  0  0  0  0  0  0  0  0  0  0  0
   -8.7300  -13.4980   48.8218 C   0  0  0  0  0  0  0  0  0  0  0  0
   -9.7579  -13.8174   48.0649 N   0  0  0  0  0  0  0  0  0  0  0  0
  -12.5394  -15.1706   44.1322 C   0  0  0  0  0  0  0  0  0  0  0  0
  -13.7077  -15.7025   43.2960 C   0  0  0  0  0  0  0  0  0  0  0  0
  -13.7854  -17.1725   43.6680 C   0  0  0  0  0  0  0  0  0  0  0  0
  -12.3314  -17.6002   43.8037 C   0  0  0  0  0  0  0  0  0  0  0  0
  -11.5235  -16.3203   44.0263 C   0  0  0  0  0  0  0  0  0  0  0  0
  2  1  1  6
  2  3  1  0
  3  4  1  0
  4  5  2  0
  4  6  1  0
  6  7  2  0
  7  8  1  0
  8  9  1  0
  9 10  2  0
  2 11  1  0
 11 12  1  0
 12 13  1  0
 13 14  1  0
 14 15  1  0
 10  6  1  0
 15 11  1  0
M  END
>  <inchikey>  (1304) 
BHUJDWWAOCGCEE-UHFFFAOYSA-N

>  <tags>  (1304) 
fragmenstein_placed,CpKRS_FrAncestor_bulkdock_iter2

>  <ref_pdb>  (1304) 
x0504a

>  <energy_score>  (1304) 
-71.024108

>  <distance_score>  (1304) 
0.687433

>  <HIPPO Pose ID>  (1304) 
59681

>  <ref_mols>  (1304) 
x0502b

>  <smiles>  (1304) 
C[C@H](NC(=O)c1cscn1)C1CCCC1

>  <HIPPO Compound ID>  (1304) 
451870

>  <alias>  (1304) 
BHUJDWWAOCGCEE-QMMMGPOBSA-N-P44

>  <subsites>  (1304) 


>  <placement_batch>  (1304) 
CpKRS_FrAncestor_bulkdock_iter2

>  <name>  (1304) 
BHUJDWWAOCGCEE-QMMMGPOBSA-N-P44

$$$$
RGSMLJLRDWJNNP-QHGLUPRGSA-N-P34
     RDKit          3D

 17 18  0  0  0  0  0  0  0  0999 V2000
    3.8121  -11.4894   21.9544 C   0  0  0  0  0  0  0  0  0  0  0  0
    4.7854  -11.3515   23.0876 C   0  0  2  0  0  0  0  0  0  0  0  0
    4.2444  -12.0585   24.1971 N   0  0  0  0  0  0  0  0  0  0  0  0
    4.5196  -13.4730   24.7009 C   0  0  0  0  0  0  0  0  0  0  0  0
    5.2846  -14.2601   24.3407 O   0  0  0  0  0  0  0  0  0  0  0  0
    3.5456  -13.8098   25.8367 C   0  0  1  0  0  0  0  0  0  0  0  0
    3.7305  -12.8468   26.7523 F   0  0  0  0  0  0  0  0  0  0  0  0
    2.0549  -13.6485   25.6122 C   0  0  0  0  0  0  0  0  0  0  0  0
    1.3581  -13.8571   26.9590 C   0  0  0  0  0  0  0  0  0  0  0  0
    1.8171  -15.1479   27.6548 C   0  0  0  0  0  0  0  0  0  0  0  0
    3.2527  -15.2363   27.8795 N   0  0  0  0  0  0  0  0  0  0  0  0
    3.9327  -15.1120   26.5645 C   0  0  0  0  0  0  0  0  0  0  0  0
    5.1156   -9.9469   23.3620 C   0  0  0  0  0  0  0  0  0  0  0  0
    6.0596   -9.3265   24.1433 C   0  0  0  0  0  0  0  0  0  0  0  0
    6.0224   -7.9539   23.8247 C   0  0  0  0  0  0  0  0  0  0  0  0
    5.1039   -7.8447   22.8140 C   0  0  0  0  0  0  0  0  0  0  0  0
    4.5060   -9.0246   22.5702 O   0  0  0  0  0  0  0  0  0  0  0  0
  2  1  1  6
  2  3  1  0
  3  4  1  0
  4  5  2  0
  4  6  1  0
  6  7  1  1
  6  8  1  0
  8  9  1  0
  9 10  1  0
 10 11  1  0
 11 12  1  0
  2 13  1  0
 13 14  2  0
 14 15  1  0
 15 16  2  0
 16 17  1  0
 12  6  1  0
 17 13  1  0
M  END
>  <inchikey>  (1305) 
RGSMLJLRDWJNNP-UHFFFAOYSA-N

>  <tags>  (1305) 
fragmenstein_placed,CpKRS_FrAncestor_bulkdock_iter2

>  <ref_pdb>  (1305) 
x0504a

>  <energy_score>  (1305) 
-17.849409

>  <distance_score>  (1305) 
0.487677

>  <HIPPO Pose ID>  (1305) 
59695

>  <ref_mols>  (1305) 
x0492a

>  <smiles>  (1305) 
C[C@H](NC(=O)C1(F)CCCNC1)c1ccco1

>  <HIPPO Compound ID>  (1305) 
250056

>  <alias>  (1305) 
RGSMLJLRDWJNNP-QHGLUPRGSA-N-P34

>  <subsites>  (1305) 


>  <placement_batch>  (1305) 
CpKRS_FrAncestor_bulkdock_iter2

>  <name>  (1305) 
RGSMLJLRDWJNNP-QHGLUPRGSA-N-P34

$$$$
BOBZNJDAIGXJHS-SSDOTTSWSA-N-P20
     RDKit          3D

 14 15  0  0  0  0  0  0  0  0999 V2000
    1.4493    7.2323   45.8058 C   0  0  0  0  0  0  0  0  0  0  0  0
    2.0238    5.9516   45.2306 C   0  0  1  0  0  0  0  0  0  0  0  0
    2.7871    6.1782   44.0313 N   0  0  0  0  0  0  0  0  0  0  0  0
    3.3309    5.1800   42.9841 C   0  0  0  0  0  0  0  0  0  0  0  0
    3.1797    4.0267   42.8890 O   0  0  0  0  0  0  0  0  0  0  0  0
    4.1740    5.9025   41.9412 C   0  0  0  0  0  0  0  0  0  0  0  0
    4.1652    7.2583   41.9702 N   0  0  0  0  0  0  0  0  0  0  0  0
    4.9081    7.8522   41.0129 C   0  0  0  0  0  0  0  0  0  0  0  0
    5.6831    7.1651   40.1035 C   0  0  0  0  0  0  0  0  0  0  0  0
    5.6699    5.7948   40.2139 C   0  0  0  0  0  0  0  0  0  0  0  0
    4.9349    5.1388   41.1274 N   0  0  0  0  0  0  0  0  0  0  0  0
    2.8952    5.2641   46.2443 C   0  0  0  0  0  0  0  0  0  0  0  0
    3.2163    3.7981   46.1140 C   0  0  0  0  0  0  0  0  0  0  0  0
    2.2942    4.2628   47.2023 C   0  0  0  0  0  0  0  0  0  0  0  0
  2  1  1  1
  2  3  1  0
  3  4  1  0
  4  5  2  0
  4  6  1  0
  6  7  2  0
  7  8  1  0
  8  9  2  0
  9 10  1  0
 10 11  2  0
  2 12  1  0
 12 13  1  0
 13 14  1  0
 11  6  1  0
 14 12  1  0
M  END
>  <inchikey>  (1306) 
BOBZNJDAIGXJHS-UHFFFAOYSA-N

>  <tags>  (1306) 
fragmenstein_placed,CpKRS_FrAncestor_bulkdock_iter2

>  <ref_pdb>  (1306) 
x0504a

>  <energy_score>  (1306) 
-1.671783

>  <distance_score>  (1306) 
0.242839

>  <HIPPO Pose ID>  (1306) 
59701

>  <ref_mols>  (1306) 
x0456a

>  <smiles>  (1306) 
C[C@@H](NC(=O)c1ncccn1)C1CC1

>  <HIPPO Compound ID>  (1306) 
20965

>  <alias>  (1306) 
BOBZNJDAIGXJHS-SSDOTTSWSA-N-P20

>  <subsites>  (1306) 


>  <placement_batch>  (1306) 
CpKRS_FrAncestor_bulkdock_iter2

>  <name>  (1306) 
BOBZNJDAIGXJHS-SSDOTTSWSA-N-P20

$$$$
VSEXUFNXHWQJQQ-QMMMGPOBSA-N-P34
     RDKit          3D

 17 18  0  0  0  0  0  0  0  0999 V2000
    3.7758  -11.6767   22.0474 C   0  0  0  0  0  0  0  0  0  0  0  0
    4.7733  -11.5449   23.1653 C   0  0  2  0  0  0  0  0  0  0  0  0
    4.2598  -12.2491   24.2996 N   0  0  0  0  0  0  0  0  0  0  0  0
    4.8483  -13.4180   25.0948 C   0  0  0  0  0  0  0  0  0  0  0  0
    5.8783  -13.9466   25.0050 O   0  0  0  0  0  0  0  0  0  0  0  0
    3.8212  -13.9539   26.0497 C   0  0  0  0  0  0  0  0  0  0  0  0
    2.6173  -13.2893   26.0898 N   0  0  0  0  0  0  0  0  0  0  0  0
    1.7553  -13.7083   27.0386 C   0  0  0  0  0  0  0  0  0  0  0  0
    2.0100  -14.7467   27.9263 C   0  0  0  0  0  0  0  0  0  0  0  0
    3.2127  -15.4329   27.8167 C   0  0  0  0  0  0  0  0  0  0  0  0
    4.1362  -15.0324   26.8655 C   0  0  0  0  0  0  0  0  0  0  0  0
    5.3134  -15.6699   26.8161 F   0  0  0  0  0  0  0  0  0  0  0  0
    5.0923  -10.1191   23.4198 C   0  0  0  0  0  0  0  0  0  0  0  0
    6.0745   -9.4727   24.1336 C   0  0  0  0  0  0  0  0  0  0  0  0
    5.9845   -8.0981   23.8292 C   0  0  0  0  0  0  0  0  0  0  0  0
    4.9884   -7.9992   22.8948 C   0  0  0  0  0  0  0  0  0  0  0  0
    4.4096   -9.1976   22.6766 O   0  0  0  0  0  0  0  0  0  0  0  0
  2  1  1  6
  2  3  1  0
  3  4  1  0
  4  5  2  0
  4  6  1  0
  6  7  2  0
  7  8  1  0
  8  9  2  0
  9 10  1  0
 10 11  2  0
 11 12  1  0
  2 13  1  0
 13 14  2  0
 14 15  1  0
 15 16  2  0
 16 17  1  0
 11  6  1  0
 17 13  1  0
M  END
>  <inchikey>  (1307) 
VSEXUFNXHWQJQQ-UHFFFAOYSA-N

>  <tags>  (1307) 
fragmenstein_placed,CpKRS_FrAncestor_bulkdock_iter2

>  <ref_pdb>  (1307) 
x0504a

>  <energy_score>  (1307) 
-18.210357

>  <distance_score>  (1307) 
0.441113

>  <HIPPO Pose ID>  (1307) 
59703

>  <ref_mols>  (1307) 
x0492a

>  <smiles>  (1307) 
C[C@H](NC(=O)c1ncccc1F)c1ccco1

>  <HIPPO Compound ID>  (1307) 
234533

>  <alias>  (1307) 
VSEXUFNXHWQJQQ-QMMMGPOBSA-N-P34

>  <subsites>  (1307) 


>  <placement_batch>  (1307) 
CpKRS_FrAncestor_bulkdock_iter2

>  <name>  (1307) 
VSEXUFNXHWQJQQ-QMMMGPOBSA-N-P34

$$$$
FEPYJRSKLTYTRZ-MRVPVSSYSA-N-P35
     RDKit          3D

 17 18  0  0  0  0  0  0  0  0999 V2000
    5.0434  -12.4589   22.2046 C   0  0  0  0  0  0  0  0  0  0  0  0
    4.0262  -11.6842   23.0168 C   0  0  1  0  0  0  0  0  0  0  0  0
    3.7338  -12.3594   24.2416 N   0  0  0  0  0  0  0  0  0  0  0  0
    4.5994  -13.3004   25.0942 C   0  0  0  0  0  0  0  0  0  0  0  0
    5.7136  -13.6146   24.9757 O   0  0  0  0  0  0  0  0  0  0  0  0
    3.7433  -13.8987   26.1663 C   0  0  0  0  0  0  0  0  0  0  0  0
    2.5011  -13.3278   26.3210 N   0  0  0  0  0  0  0  0  0  0  0  0
    1.7782  -13.7768   27.3644 C   0  0  0  0  0  0  0  0  0  0  0  0
    2.2125  -14.7537   28.2483 C   0  0  0  0  0  0  0  0  0  0  0  0
    3.4574  -15.3382   28.0301 C   0  0  0  0  0  0  0  0  0  0  0  0
    4.2370  -14.9143   26.9679 C   0  0  0  0  0  0  0  0  0  0  0  0
    5.4538  -15.4553   26.8101 F   0  0  0  0  0  0  0  0  0  0  0  0
    4.5717  -10.3124   23.2085 C   0  0  0  0  0  0  0  0  0  0  0  0
    5.6838   -9.9203   23.9219 C   0  0  0  0  0  0  0  0  0  0  0  0
    6.0768   -8.5866   23.6585 C   0  0  0  0  0  0  0  0  0  0  0  0
    5.2905   -8.0408   22.6763 C   0  0  0  0  0  0  0  0  0  0  0  0
    3.9864   -9.0388   22.2467 S   0  0  0  0  0  0  0  0  0  0  0  0
  2  1  1  1
  2  3  1  0
  3  4  1  0
  4  5  2  0
  4  6  1  0
  6  7  2  0
  7  8  1  0
  8  9  2  0
  9 10  1  0
 10 11  2  0
 11 12  1  0
  2 13  1  0
 13 14  2  0
 14 15  1  0
 15 16  2  0
 16 17  1  0
 11  6  1  0
 17 13  1  0
M  END
>  <inchikey>  (1308) 
FEPYJRSKLTYTRZ-UHFFFAOYSA-N

>  <tags>  (1308) 
fragmenstein_placed,CpKRS_FrAncestor_bulkdock_iter2

>  <ref_pdb>  (1308) 
x0504a

>  <energy_score>  (1308) 
-10.863068

>  <distance_score>  (1308) 
0.36304

>  <HIPPO Pose ID>  (1308) 
59708

>  <ref_mols>  (1308) 
x0492b

>  <smiles>  (1308) 
C[C@@H](NC(=O)c1ncccc1F)c1cccs1

>  <HIPPO Compound ID>  (1308) 
226970

>  <alias>  (1308) 
FEPYJRSKLTYTRZ-MRVPVSSYSA-N-P35

>  <subsites>  (1308) 


>  <placement_batch>  (1308) 
CpKRS_FrAncestor_bulkdock_iter2

>  <name>  (1308) 
FEPYJRSKLTYTRZ-MRVPVSSYSA-N-P35

$$$$
QLRFWPVSPATFAK-VIFPVBQESA-N-P44
     RDKit          3D

 16 17  0  0  0  0  0  0  0  0999 V2000
  -11.6120  -11.4005   45.4920 C   0  0  0  0  0  0  0  0  0  0  0  0
  -11.3395  -12.5762   46.4243 C   0  0  1  0  0  0  0  0  0  0  0  0
  -11.6329  -13.8133   45.7256 N   0  0  0  0  0  0  0  0  0  0  0  0
  -12.8436  -14.2114   44.8628 C   0  0  0  0  0  0  0  0  0  0  0  0
  -13.7613  -13.5831   44.5125 O   0  0  0  0  0  0  0  0  0  0  0  0
  -12.6989  -15.6187   44.4828 C   0  0  0  0  0  0  0  0  0  0  0  0
  -11.7025  -16.3926   44.8988 N   0  0  0  0  0  0  0  0  0  0  0  0
  -11.9995  -17.6468   44.4370 C   0  0  0  0  0  0  0  0  0  0  0  0
  -13.1307  -17.6334   43.6596 C   0  0  0  0  0  0  0  0  0  0  0  0
  -13.5609  -16.3374   43.6848 N   0  0  0  0  0  0  0  0  0  0  0  0
  -14.7410  -15.8347   43.0239 C   0  0  0  0  0  0  0  0  0  0  0  0
   -9.8937  -12.5726   46.9534 C   0  0  0  0  0  0  0  0  0  0  0  0
   -9.3726  -11.2148   47.4245 C   0  0  0  0  0  0  0  0  0  0  0  0
   -8.1367  -11.5757   48.2301 C   0  0  0  0  0  0  0  0  0  0  0  0
   -8.5170  -12.8570   48.9596 C   0  0  0  0  0  0  0  0  0  0  0  0
   -9.6931  -13.4611   48.1883 C   0  0  0  0  0  0  0  0  0  0  0  0
  2  1  1  6
  2  3  1  0
  3  4  1  0
  4  5  2  0
  4  6  1  0
  6  7  2  0
  7  8  1  0
  8  9  2  0
  9 10  1  0
 10 11  1  0
  2 12  1  0
 12 13  1  0
 13 14  1  0
 14 15  1  0
 15 16  1  0
 10  6  1  0
 16 12  1  0
M  END
>  <inchikey>  (1309) 
QLRFWPVSPATFAK-UHFFFAOYSA-N

>  <tags>  (1309) 
fragmenstein_placed,CpKRS_FrAncestor_bulkdock_iter2

>  <ref_pdb>  (1309) 
x0504a

>  <energy_score>  (1309) 
-56.45344

>  <distance_score>  (1309) 
0.848547

>  <HIPPO Pose ID>  (1309) 
59710

>  <ref_mols>  (1309) 
x0502b

>  <smiles>  (1309) 
C[C@H](NC(=O)c1nccn1C)C1CCCC1

>  <HIPPO Compound ID>  (1309) 
451873

>  <alias>  (1309) 
QLRFWPVSPATFAK-VIFPVBQESA-N-P44

>  <subsites>  (1309) 


>  <placement_batch>  (1309) 
CpKRS_FrAncestor_bulkdock_iter2

>  <name>  (1309) 
QLRFWPVSPATFAK-VIFPVBQESA-N-P44

$$$$
BJJSHFIEFLQXBH-QMMMGPOBSA-N-P44
     RDKit          3D

 16 17  0  0  0  0  0  0  0  0999 V2000
  -14.0792  -14.0461   46.0274 C   0  0  0  0  0  0  0  0  0  0  0  0
  -12.8281  -14.8903   45.7831 C   0  0  2  0  0  0  0  0  0  0  0  0
  -11.6983  -14.2299   46.4175 N   0  0  0  0  0  0  0  0  0  0  0  0
  -11.0159  -12.8911   46.0974 C   0  0  0  0  0  0  0  0  0  0  0  0
  -11.2968  -12.0661   45.3235 O   0  0  0  0  0  0  0  0  0  0  0  0
   -9.8882  -12.6357   46.9924 C   0  0  0  0  0  0  0  0  0  0  0  0
   -9.0930  -11.5203   46.7808 N   0  0  0  0  0  0  0  0  0  0  0  0
   -8.1160  -11.4248   47.7311 C   0  0  0  0  0  0  0  0  0  0  0  0
   -8.2566  -12.5011   48.5734 C   0  0  0  0  0  0  0  0  0  0  0  0
   -9.3639  -13.2595   48.1143 C   0  0  0  0  0  0  0  0  0  0  0  0
   -9.8838  -14.6721   48.9097 Cl  0  0  0  0  0  0  0  0  0  0  0  0
  -12.5508  -15.1471   44.2785 C   0  0  0  0  0  0  0  0  0  0  0  0
  -13.7379  -15.6903   43.4764 C   0  0  0  0  0  0  0  0  0  0  0  0
  -13.7480  -17.1745   43.7957 C   0  0  0  0  0  0  0  0  0  0  0  0
  -12.2754  -17.5543   43.8475 C   0  0  0  0  0  0  0  0  0  0  0  0
  -11.5028  -16.2545   44.0816 C   0  0  0  0  0  0  0  0  0  0  0  0
  2  1  1  6
  2  3  1  0
  3  4  1  0
  4  5  2  0
  4  6  1  0
  6  7  1  0
  7  8  1  0
  8  9  2  0
  9 10  1  0
 10 11  1  0
  2 12  1  0
 12 13  1  0
 13 14  1  0
 14 15  1  0
 15 16  1  0
 10  6  2  0
 16 12  1  0
M  END
>  <inchikey>  (1310) 
BJJSHFIEFLQXBH-UHFFFAOYSA-N

>  <tags>  (1310) 
fragmenstein_placed,CpKRS_FrAncestor_bulkdock_iter2

>  <ref_pdb>  (1310) 
x0504a

>  <energy_score>  (1310) 
-5.405737

>  <distance_score>  (1310) 
0.40666

>  <HIPPO Pose ID>  (1310) 
59713

>  <ref_mols>  (1310) 
x0502b

>  <smiles>  (1310) 
C[C@H](NC(=O)c1[nH]ccc1Cl)C1CCCC1

>  <HIPPO Compound ID>  (1310) 
451874

>  <alias>  (1310) 
BJJSHFIEFLQXBH-QMMMGPOBSA-N-P44

>  <subsites>  (1310) 


>  <placement_batch>  (1310) 
CpKRS_FrAncestor_bulkdock_iter2

>  <name>  (1310) 
BJJSHFIEFLQXBH-QMMMGPOBSA-N-P44

$$$$
JBDMAWZRRNFXMV-QMMMGPOBSA-N-P44
     RDKit          3D

 16 17  0  0  0  0  0  0  0  0999 V2000
  -13.9352  -14.1753   46.1944 C   0  0  0  0  0  0  0  0  0  0  0  0
  -12.7080  -15.0114   45.8321 C   0  0  2  0  0  0  0  0  0  0  0  0
  -11.5320  -14.3764   46.4066 N   0  0  0  0  0  0  0  0  0  0  0  0
  -10.8770  -13.0195   46.0968 C   0  0  0  0  0  0  0  0  0  0  0  0
  -11.1293  -12.2280   45.2791 O   0  0  0  0  0  0  0  0  0  0  0  0
   -9.8112  -12.7289   47.0425 C   0  0  0  0  0  0  0  0  0  0  0  0
   -9.0162  -11.6046   46.9050 N   0  0  0  0  0  0  0  0  0  0  0  0
   -8.1017  -11.5294   47.9242 C   0  0  0  0  0  0  0  0  0  0  0  0
   -8.2867  -12.6262   48.7356 C   0  0  0  0  0  0  0  0  0  0  0  0
   -9.3489  -13.3594   48.1765 C   0  0  0  0  0  0  0  0  0  0  0  0
   -9.8350  -14.4958   48.6896 F   0  0  0  0  0  0  0  0  0  0  0  0
  -12.5351  -15.2103   44.3028 C   0  0  0  0  0  0  0  0  0  0  0  0
  -13.7749  -15.7163   43.5592 C   0  0  0  0  0  0  0  0  0  0  0  0
  -13.7773  -17.2114   43.8220 C   0  0  0  0  0  0  0  0  0  0  0  0
  -12.3072  -17.6029   43.7817 C   0  0  0  0  0  0  0  0  0  0  0  0
  -11.5108  -16.3144   43.9950 C   0  0  0  0  0  0  0  0  0  0  0  0
  2  1  1  6
  2  3  1  0
  3  4  1  0
  4  5  2  0
  4  6  1  0
  6  7  1  0
  7  8  1  0
  8  9  2  0
  9 10  1  0
 10 11  1  0
  2 12  1  0
 12 13  1  0
 13 14  1  0
 14 15  1  0
 15 16  1  0
 10  6  2  0
 16 12  1  0
M  END
>  <inchikey>  (1311) 
JBDMAWZRRNFXMV-UHFFFAOYSA-N

>  <tags>  (1311) 
fragmenstein_placed,CpKRS_FrAncestor_bulkdock_iter2

>  <ref_pdb>  (1311) 
x0504a

>  <energy_score>  (1311) 
-7.549666

>  <distance_score>  (1311) 
0.402974

>  <HIPPO Pose ID>  (1311) 
59716

>  <ref_mols>  (1311) 
x0502b

>  <smiles>  (1311) 
C[C@H](NC(=O)c1[nH]ccc1F)C1CCCC1

>  <HIPPO Compound ID>  (1311) 
451875

>  <alias>  (1311) 
JBDMAWZRRNFXMV-QMMMGPOBSA-N-P44

>  <subsites>  (1311) 


>  <placement_batch>  (1311) 
CpKRS_FrAncestor_bulkdock_iter2

>  <name>  (1311) 
JBDMAWZRRNFXMV-QMMMGPOBSA-N-P44

$$$$
ZZEDSSQEXYHFHE-ZETCQYMHSA-N-P44
     RDKit          3D

 16 17  0  0  0  0  0  0  0  0999 V2000
  -13.9049  -14.0189   46.0456 C   0  0  0  0  0  0  0  0  0  0  0  0
  -12.6982  -14.9065   45.7415 C   0  0  2  0  0  0  0  0  0  0  0  0
  -11.5135  -14.2883   46.3176 N   0  0  0  0  0  0  0  0  0  0  0  0
  -10.8235  -12.9550   45.9899 C   0  0  0  0  0  0  0  0  0  0  0  0
  -11.0474  -12.1743   45.1548 O   0  0  0  0  0  0  0  0  0  0  0  0
   -9.7619  -12.6604   46.9367 C   0  0  0  0  0  0  0  0  0  0  0  0
   -8.9588  -11.5598   46.7379 N   0  0  0  0  0  0  0  0  0  0  0  0
   -8.0420  -11.3463   47.6999 N   0  0  0  0  0  0  0  0  0  0  0  0
   -8.2226  -12.3802   48.5241 C   0  0  0  0  0  0  0  0  0  0  0  0
   -9.2771  -13.2078   48.1050 C   0  0  0  0  0  0  0  0  0  0  0  0
   -9.8170  -14.7149   49.0731 Br  0  0  0  0  0  0  0  0  0  0  0  0
  -12.5011  -15.1724   44.2263 C   0  0  0  0  0  0  0  0  0  0  0  0
  -11.4947  -16.3099   43.9842 C   0  0  0  0  0  0  0  0  0  0  0  0
  -12.3132  -17.5859   43.7784 C   0  0  0  0  0  0  0  0  0  0  0  0
  -13.7752  -17.1655   43.7992 C   0  0  0  0  0  0  0  0  0  0  0  0
  -13.7399  -15.6812   43.4824 C   0  0  0  0  0  0  0  0  0  0  0  0
  2  1  1  6
  2  3  1  0
  3  4  1  0
  4  5  2  0
  4  6  1  0
  6  7  1  0
  7  8  1  0
  8  9  2  0
  9 10  1  0
 10 11  1  0
  2 12  1  0
 12 13  1  0
 13 14  1  0
 14 15  1  0
 15 16  1  0
 10  6  2  0
 16 12  1  0
M  END
>  <inchikey>  (1312) 
ZZEDSSQEXYHFHE-UHFFFAOYSA-N

>  <tags>  (1312) 
fragmenstein_placed,CpKRS_FrAncestor_bulkdock_iter2

>  <ref_pdb>  (1312) 
x0504a

>  <energy_score>  (1312) 
-2.107782

>  <distance_score>  (1312) 
0.440155

>  <HIPPO Pose ID>  (1312) 
59719

>  <ref_mols>  (1312) 
x0502b

>  <smiles>  (1312) 
C[C@H](NC(=O)c1[nH]ncc1Br)C1CCCC1

>  <HIPPO Compound ID>  (1312) 
451876

>  <alias>  (1312) 
ZZEDSSQEXYHFHE-ZETCQYMHSA-N-P44

>  <subsites>  (1312) 


>  <placement_batch>  (1312) 
CpKRS_FrAncestor_bulkdock_iter2

>  <name>  (1312) 
ZZEDSSQEXYHFHE-ZETCQYMHSA-N-P44

$$$$
FEGBIHXBKRBSCH-ZETCQYMHSA-N-P44
     RDKit          3D

 16 17  0  0  0  0  0  0  0  0999 V2000
  -13.9035  -14.0434   46.0679 C   0  0  0  0  0  0  0  0  0  0  0  0
  -12.6974  -14.9286   45.7546 C   0  0  2  0  0  0  0  0  0  0  0  0
  -11.5117  -14.3143   46.3330 N   0  0  0  0  0  0  0  0  0  0  0  0
  -10.8179  -12.9815   46.0083 C   0  0  0  0  0  0  0  0  0  0  0  0
  -11.0393  -12.1985   45.1745 O   0  0  0  0  0  0  0  0  0  0  0  0
   -9.7576  -12.6902   46.9562 C   0  0  0  0  0  0  0  0  0  0  0  0
   -8.9567  -11.5877   46.7692 N   0  0  0  0  0  0  0  0  0  0  0  0
   -8.0448  -11.3823   47.7362 N   0  0  0  0  0  0  0  0  0  0  0  0
   -8.2287  -12.4263   48.5471 C   0  0  0  0  0  0  0  0  0  0  0  0
   -9.2826  -13.2595   48.1211 C   0  0  0  0  0  0  0  0  0  0  0  0
   -9.7975  -14.6420   48.9571 Cl  0  0  0  0  0  0  0  0  0  0  0  0
  -12.5037  -15.1822   44.2368 C   0  0  0  0  0  0  0  0  0  0  0  0
  -11.4972  -16.3167   43.9828 C   0  0  0  0  0  0  0  0  0  0  0  0
  -12.3155  -17.5926   43.7759 C   0  0  0  0  0  0  0  0  0  0  0  0
  -13.7778  -17.1727   43.7981 C   0  0  0  0  0  0  0  0  0  0  0  0
  -13.7436  -15.6863   43.4916 C   0  0  0  0  0  0  0  0  0  0  0  0
  2  1  1  6
  2  3  1  0
  3  4  1  0
  4  5  2  0
  4  6  1  0
  6  7  1  0
  7  8  1  0
  8  9  2  0
  9 10  1  0
 10 11  1  0
  2 12  1  0
 12 13  1  0
 13 14  1  0
 14 15  1  0
 15 16  1  0
 10  6  2  0
 16 12  1  0
M  END
>  <inchikey>  (1313) 
FEGBIHXBKRBSCH-UHFFFAOYSA-N

>  <tags>  (1313) 
fragmenstein_placed,CpKRS_FrAncestor_bulkdock_iter2

>  <ref_pdb>  (1313) 
x0504a

>  <energy_score>  (1313) 
-5.046845

>  <distance_score>  (1313) 
0.427165

>  <HIPPO Pose ID>  (1313) 
59722

>  <ref_mols>  (1313) 
x0502b

>  <smiles>  (1313) 
C[C@H](NC(=O)c1[nH]ncc1Cl)C1CCCC1

>  <HIPPO Compound ID>  (1313) 
451877

>  <alias>  (1313) 
FEGBIHXBKRBSCH-ZETCQYMHSA-N-P44

>  <subsites>  (1313) 


>  <placement_batch>  (1313) 
CpKRS_FrAncestor_bulkdock_iter2

>  <name>  (1313) 
FEGBIHXBKRBSCH-ZETCQYMHSA-N-P44

$$$$
WKAUSPTXJMOVIP-QMMMGPOBSA-N-P46
     RDKit          3D

 17 18  0  0  0  0  0  0  0  0999 V2000
    5.1000  -12.3601   22.2287 C   0  0  0  0  0  0  0  0  0  0  0  0
    4.9966  -11.4677   23.4380 C   0  0  2  0  0  0  0  0  0  0  0  0
    4.2262  -12.1907   24.3989 N   0  0  0  0  0  0  0  0  0  0  0  0
    4.5974  -13.3977   25.2688 C   0  0  0  0  0  0  0  0  0  0  0  0
    5.6129  -13.9492   25.3992 O   0  0  0  0  0  0  0  0  0  0  0  0
    3.3833  -13.7648   26.0106 C   0  0  0  0  0  0  0  0  0  0  0  0
    2.2256  -13.0893   25.7986 N   0  0  0  0  0  0  0  0  0  0  0  0
    1.3935  -13.6073   26.7029 N   0  0  0  0  0  0  0  0  0  0  0  0
    0.0420  -13.1220   26.7308 C   0  0  0  0  0  0  0  0  0  0  0  0
    1.9430  -14.5707   27.4844 C   0  0  0  0  0  0  0  0  0  0  0  0
    3.2211  -14.7419   27.0144 C   0  0  0  0  0  0  0  0  0  0  0  0
    4.3646  -15.8402   27.5813 Cl  0  0  0  0  0  0  0  0  0  0  0  0
    4.3685  -10.1230   23.0808 C   0  0  0  0  0  0  0  0  0  0  0  0
    4.4811   -9.1280   24.2442 C   0  0  0  0  0  0  0  0  0  0  0  0
    5.6047   -8.1990   23.8295 C   0  0  0  0  0  0  0  0  0  0  0  0
    5.3301   -8.0335   22.3475 C   0  0  0  0  0  0  0  0  0  0  0  0
    5.0819   -9.4500   21.8929 C   0  0  0  0  0  0  0  0  0  0  0  0
  2  1  1  6
  2  3  1  0
  3  4  1  0
  4  5  2  0
  4  6  1  0
  6  7  2  0
  7  8  1  0
  8  9  1  0
  8 10  1  0
 10 11  2  0
 11 12  1  0
  2 13  1  0
 13 14  1  0
 14 15  1  0
 15 16  1  0
 16 17  1  0
 11  6  1  0
 17 13  1  0
M  END
>  <inchikey>  (1314) 
WKAUSPTXJMOVIP-UHFFFAOYSA-N

>  <tags>  (1314) 
fragmenstein_placed,CpKRS_FrAncestor_bulkdock_iter2

>  <ref_pdb>  (1314) 
x0504a

>  <energy_score>  (1314) 
-14.193791

>  <distance_score>  (1314) 
0.665052

>  <HIPPO Pose ID>  (1314) 
59726

>  <ref_mols>  (1314) 
x0502c

>  <smiles>  (1314) 
C[C@H](NC(=O)c1nn(C)cc1Cl)C1CCCC1

>  <HIPPO Compound ID>  (1314) 
167002

>  <alias>  (1314) 
WKAUSPTXJMOVIP-QMMMGPOBSA-N-P46

>  <subsites>  (1314) 


>  <placement_batch>  (1314) 
CpKRS_FrAncestor_bulkdock_iter2

>  <name>  (1314) 
WKAUSPTXJMOVIP-QMMMGPOBSA-N-P46

$$$$
VRPKRPQBEQVACK-QMMMGPOBSA-N-P45
     RDKit          3D

 17 18  0  0  0  0  0  0  0  0999 V2000
    4.9544  -12.1004   22.1273 C   0  0  0  0  0  0  0  0  0  0  0  0
    4.8320  -11.2868   23.3975 C   0  0  2  0  0  0  0  0  0  0  0  0
    4.2554  -12.1533   24.3950 N   0  0  0  0  0  0  0  0  0  0  0  0
    4.8692  -13.3316   25.1707 C   0  0  0  0  0  0  0  0  0  0  0  0
    5.9589  -13.7404   25.1835 O   0  0  0  0  0  0  0  0  0  0  0  0
    3.8034  -13.9372   25.9698 C   0  0  0  0  0  0  0  0  0  0  0  0
    2.5568  -13.4076   25.9739 N   0  0  0  0  0  0  0  0  0  0  0  0
    1.9273  -14.1271   26.9069 N   0  0  0  0  0  0  0  0  0  0  0  0
    0.6249  -13.6887   27.2962 C   0  0  0  0  0  0  0  0  0  0  0  0
    2.6456  -15.1474   27.4365 C   0  0  0  0  0  0  0  0  0  0  0  0
    3.8714  -15.0382   26.8416 C   0  0  0  0  0  0  0  0  0  0  0  0
    4.9298  -15.8073   27.1036 F   0  0  0  0  0  0  0  0  0  0  0  0
    3.9766  -10.0174   23.2061 C   0  0  0  0  0  0  0  0  0  0  0  0
    4.1547   -9.0550   24.3818 C   0  0  0  0  0  0  0  0  0  0  0  0
    5.4280   -8.2727   24.0683 C   0  0  0  0  0  0  0  0  0  0  0  0
    5.6013   -8.3539   22.5549 C   0  0  0  0  0  0  0  0  0  0  0  0
    4.3896   -9.1112   22.0436 C   0  0  0  0  0  0  0  0  0  0  0  0
  2  1  1  6
  2  3  1  0
  3  4  1  0
  4  5  2  0
  4  6  1  0
  6  7  2  0
  7  8  1  0
  8  9  1  0
  8 10  1  0
 10 11  2  0
 11 12  1  0
  2 13  1  0
 13 14  1  0
 14 15  1  0
 15 16  1  0
 16 17  1  0
 11  6  1  0
 17 13  1  0
M  END
>  <inchikey>  (1315) 
VRPKRPQBEQVACK-UHFFFAOYSA-N

>  <tags>  (1315) 
fragmenstein_placed,CpKRS_FrAncestor_bulkdock_iter2

>  <ref_pdb>  (1315) 
x0504a

>  <energy_score>  (1315) 
-12.542877

>  <distance_score>  (1315) 
0.664669

>  <HIPPO Pose ID>  (1315) 
59727

>  <ref_mols>  (1315) 
x0502a

>  <smiles>  (1315) 
C[C@H](NC(=O)c1nn(C)cc1F)C1CCCC1

>  <HIPPO Compound ID>  (1315) 
167016

>  <alias>  (1315) 
VRPKRPQBEQVACK-QMMMGPOBSA-N-P45

>  <subsites>  (1315) 


>  <placement_batch>  (1315) 
CpKRS_FrAncestor_bulkdock_iter2

>  <name>  (1315) 
VRPKRPQBEQVACK-QMMMGPOBSA-N-P45

$$$$
MNACWBSJEMCWMQ-SCSAIBSYSA-N-P49
     RDKit          3D

 15 15  0  0  0  0  0  0  0  0999 V2000
    4.4240  -11.2278   22.2300 C   0  0  0  0  0  0  0  0  0  0  0  0
    3.5481  -10.6777   23.3518 C   0  0  1  0  0  0  0  0  0  0  0  0
    3.1584  -11.7212   24.2766 N   0  0  0  0  0  0  0  0  0  0  0  0
    3.9531  -12.9094   24.8300 C   0  0  0  0  0  0  0  0  0  0  0  0
    5.0710  -13.1982   24.6923 O   0  0  0  0  0  0  0  0  0  0  0  0
    3.0559  -13.6603   25.7263 C   0  0  0  0  0  0  0  0  0  0  0  0
    1.7625  -13.2200   26.0374 N   0  0  0  0  0  0  0  0  0  0  0  0
    1.3184  -14.0691   26.9369 C   0  0  0  0  0  0  0  0  0  0  0  0
    2.2288  -15.0500   27.1987 N   0  0  0  0  0  0  0  0  0  0  0  0
    2.0645  -16.1266   28.1380 C   0  0  0  0  0  0  0  0  0  0  0  0
    3.3231  -14.8235   26.4174 C   0  0  0  0  0  0  0  0  0  0  0  0
    4.8869  -15.8886   26.3359 Br  0  0  0  0  0  0  0  0  0  0  0  0
    4.2462   -9.5126   24.0611 C   0  0  0  0  0  0  0  0  0  0  0  0
    4.5431   -8.5378   23.1596 F   0  0  0  0  0  0  0  0  0  0  0  0
    5.4130   -9.8838   24.6326 F   0  0  0  0  0  0  0  0  0  0  0  0
  2  1  1  6
  2  3  1  0
  3  4  1  0
  4  5  2  0
  4  6  1  0
  6  7  1  0
  7  8  2  0
  8  9  1  0
  9 10  1  0
  9 11  1  0
 11 12  1  0
  2 13  1  0
 13 14  1  0
 13 15  1  0
 11  6  2  0
M  END
>  <inchikey>  (1316) 
MNACWBSJEMCWMQ-UHFFFAOYSA-N

>  <tags>  (1316) 
fragmenstein_placed,CpKRS_FrAncestor_bulkdock_iter2

>  <ref_pdb>  (1316) 
x0504a

>  <energy_score>  (1316) 
-1.060218

>  <distance_score>  (1316) 
0.533892

>  <HIPPO Pose ID>  (1316) 
59734

>  <ref_mols>  (1316) 
x0504b

>  <smiles>  (1316) 
C[C@@H](NC(=O)c1ncn(C)c1Br)C(F)F

>  <HIPPO Compound ID>  (1316) 
451878

>  <alias>  (1316) 
MNACWBSJEMCWMQ-SCSAIBSYSA-N-P49

>  <subsites>  (1316) 


>  <placement_batch>  (1316) 
CpKRS_FrAncestor_bulkdock_iter2

>  <name>  (1316) 
MNACWBSJEMCWMQ-SCSAIBSYSA-N-P49

$$$$
GWVJJAYWVGCGIK-RXMQYKEDSA-N-P48
     RDKit          3D

 18 18  0  0  0  0  0  0  0  0999 V2000
    4.6982  -12.2374   22.0520 C   0  0  0  0  0  0  0  0  0  0  0  0
    3.7228  -11.3493   22.8119 C   0  0  1  0  0  0  0  0  0  0  0  0
    3.2890  -12.0448   24.0157 N   0  0  0  0  0  0  0  0  0  0  0  0
    4.0429  -13.0269   24.9293 C   0  0  0  0  0  0  0  0  0  0  0  0
    5.1534  -13.3760   24.9084 O   0  0  0  0  0  0  0  0  0  0  0  0
    3.0879  -13.6036   25.8790 C   0  0  0  0  0  0  0  0  0  0  0  0
    1.7790  -13.1564   26.0200 N   0  0  0  0  0  0  0  0  0  0  0  0
    1.2859  -13.9354   26.9566 C   0  0  0  0  0  0  0  0  0  0  0  0
    2.1384  -14.8836   27.4267 O   0  0  0  0  0  0  0  0  0  0  0  0
    3.3014  -14.6752   26.7214 C   0  0  0  0  0  0  0  0  0  0  0  0
    4.4335  -15.5876   26.9601 C   0  0  0  0  0  0  0  0  0  0  0  0
    5.6433  -14.9750   26.9811 F   0  0  0  0  0  0  0  0  0  0  0  0
    4.3243  -16.2201   28.1607 F   0  0  0  0  0  0  0  0  0  0  0  0
    4.5099  -16.5608   26.0155 F   0  0  0  0  0  0  0  0  0  0  0  0
    4.2278   -9.8888   22.9952 C   0  0  0  0  0  0  0  0  0  0  0  0
    5.1014   -9.3777   21.8448 C   0  0  0  0  0  0  0  0  0  0  0  0
    4.9535   -9.6526   24.3097 C   0  0  0  0  0  0  0  0  0  0  0  0
    3.1124   -9.0675   23.0143 F   0  0  0  0  0  0  0  0  0  0  0  0
  2  1  1  1
  2  3  1  0
  3  4  1  0
  4  5  2  0
  4  6  1  0
  6  7  1  0
  7  8  2  0
  8  9  1  0
  9 10  1  0
 10 11  1  0
 11 12  1  0
 11 13  1  0
 11 14  1  0
  2 15  1  0
 15 16  1  0
 15 17  1  0
 15 18  1  0
 10  6  2  0
M  END
>  <inchikey>  (1317) 
GWVJJAYWVGCGIK-UHFFFAOYSA-N

>  <tags>  (1317) 
fragmenstein_placed,CpKRS_FrAncestor_bulkdock_iter2

>  <ref_pdb>  (1317) 
x0504a

>  <energy_score>  (1317) 
-11.14865

>  <distance_score>  (1317) 
0.504415

>  <HIPPO Pose ID>  (1317) 
59739

>  <ref_mols>  (1317) 
x0504a

>  <smiles>  (1317) 
C[C@@H](NC(=O)c1ncoc1C(F)(F)F)C(C)(C)F

>  <HIPPO Compound ID>  (1317) 
342395

>  <alias>  (1317) 
GWVJJAYWVGCGIK-RXMQYKEDSA-N-P48

>  <subsites>  (1317) 


>  <placement_batch>  (1317) 
CpKRS_FrAncestor_bulkdock_iter2

>  <name>  (1317) 
GWVJJAYWVGCGIK-RXMQYKEDSA-N-P48

$$$$
PEIPSEJBTSHAHX-MRVPVSSYSA-N-P48
     RDKit          3D

 18 18  0  0  0  0  0  0  0  0999 V2000
    4.4046  -12.3797   22.0326 C   0  0  0  0  0  0  0  0  0  0  0  0
    3.7619  -11.3303   22.9252 C   0  0  1  0  0  0  0  0  0  0  0  0
    3.1621  -12.0171   24.0528 N   0  0  0  0  0  0  0  0  0  0  0  0
    3.7976  -12.9116   25.1313 C   0  0  0  0  0  0  0  0  0  0  0  0
    4.9125  -13.1760   25.3298 O   0  0  0  0  0  0  0  0  0  0  0  0
    2.7296  -13.4544   25.9624 C   0  0  0  0  0  0  0  0  0  0  0  0
    1.6375  -12.7293   26.4106 N   0  0  0  0  0  0  0  0  0  0  0  0
    0.7931  -13.5669   27.0655 C   0  0  0  0  0  0  0  0  0  0  0  0
    1.3050  -14.7594   27.1606 N   0  0  0  0  0  0  0  0  0  0  0  0
    2.5484  -14.7071   26.5443 C   0  0  0  0  0  0  0  0  0  0  0  0
    3.3451  -15.9964   26.5819 C   0  0  0  0  0  0  0  0  0  0  0  0
    3.2632  -16.5500   28.0270 C   0  0  0  0  0  0  0  0  0  0  0  0
    2.6926  -17.0065   25.6124 C   0  0  0  0  0  0  0  0  0  0  0  0
    4.8194  -15.8761   26.1882 C   0  0  0  0  0  0  0  0  0  0  0  0
    4.7450  -10.1934   23.3014 C   0  0  0  0  0  0  0  0  0  0  0  0
    5.3146   -9.4824   22.0716 C   0  0  0  0  0  0  0  0  0  0  0  0
    4.0773   -9.1631   24.2044 C   0  0  0  0  0  0  0  0  0  0  0  0
    5.7969  -10.7071   23.9979 F   0  0  0  0  0  0  0  0  0  0  0  0
  2  1  1  1
  2  3  1  0
  3  4  1  0
  4  5  2  0
  4  6  1  0
  6  7  1  0
  7  8  1  0
  8  9  2  0
  9 10  1  0
 10 11  1  0
 11 12  1  0
 11 13  1  0
 11 14  1  0
  2 15  1  0
 15 16  1  0
 15 17  1  0
 15 18  1  0
 10  6  2  0
M  END
>  <inchikey>  (1318) 
PEIPSEJBTSHAHX-UHFFFAOYSA-N

>  <tags>  (1318) 
fragmenstein_placed,CpKRS_FrAncestor_bulkdock_iter2

>  <ref_pdb>  (1318) 
x0504a

>  <energy_score>  (1318) 
-21.636672

>  <distance_score>  (1318) 
0.800752

>  <HIPPO Pose ID>  (1318) 
59745

>  <ref_mols>  (1318) 
x0504a

>  <smiles>  (1318) 
C[C@@H](NC(=O)c1[nH]cnc1C(C)(C)C)C(C)(C)F

>  <HIPPO Compound ID>  (1318) 
354754

>  <alias>  (1318) 
PEIPSEJBTSHAHX-MRVPVSSYSA-N-P48

>  <subsites>  (1318) 


>  <placement_batch>  (1318) 
CpKRS_FrAncestor_bulkdock_iter2

>  <name>  (1318) 
PEIPSEJBTSHAHX-MRVPVSSYSA-N-P48

$$$$
ROOQAWSWAKMUCS-ZCFIWIBFSA-N-P49
     RDKit          3D

 18 18  0  0  0  0  0  0  0  0999 V2000
    4.5918  -11.4093   22.0175 C   0  0  0  0  0  0  0  0  0  0  0  0
    3.8991  -10.6701   23.1522 C   0  0  1  0  0  0  0  0  0  0  0  0
    3.2478  -11.6176   24.0427 N   0  0  0  0  0  0  0  0  0  0  0  0
    3.8295  -12.7710   24.8668 C   0  0  0  0  0  0  0  0  0  0  0  0
    4.9089  -13.1971   24.9072 O   0  0  0  0  0  0  0  0  0  0  0  0
    2.7946  -13.3061   25.7514 C   0  0  0  0  0  0  0  0  0  0  0  0
    1.7485  -12.5879   26.2953 N   0  0  0  0  0  0  0  0  0  0  0  0
    1.0308  -13.4077   27.1101 C   0  0  0  0  0  0  0  0  0  0  0  0
    1.5448  -14.6059   27.1547 N   0  0  0  0  0  0  0  0  0  0  0  0
    2.6683  -14.5631   26.3424 C   0  0  0  0  0  0  0  0  0  0  0  0
    3.4932  -15.8146   26.1570 C   0  0  0  0  0  0  0  0  0  0  0  0
    3.5656  -16.1726   24.6664 C   0  0  0  0  0  0  0  0  0  0  0  0
    2.8152  -17.0077   26.8539 C   0  0  0  0  0  0  0  0  0  0  0  0
    4.9031  -15.6958   26.7487 C   0  0  0  0  0  0  0  0  0  0  0  0
    4.9020   -9.7511   23.8674 C   0  0  0  0  0  0  0  0  0  0  0  0
    5.3139   -8.7647   23.0363 F   0  0  0  0  0  0  0  0  0  0  0  0
    4.3207   -9.1524   24.9336 F   0  0  0  0  0  0  0  0  0  0  0  0
    5.9929  -10.3995   24.3154 F   0  0  0  0  0  0  0  0  0  0  0  0
  2  1  1  6
  2  3  1  0
  3  4  1  0
  4  5  2  0
  4  6  1  0
  6  7  1  0
  7  8  1  0
  8  9  2  0
  9 10  1  0
 10 11  1  0
 11 12  1  0
 11 13  1  0
 11 14  1  0
  2 15  1  0
 15 16  1  0
 15 17  1  0
 15 18  1  0
 10  6  2  0
M  END
>  <inchikey>  (1319) 
ROOQAWSWAKMUCS-UHFFFAOYSA-N

>  <tags>  (1319) 
fragmenstein_placed,CpKRS_FrAncestor_bulkdock_iter2

>  <ref_pdb>  (1319) 
x0504a

>  <energy_score>  (1319) 
-15.308641

>  <distance_score>  (1319) 
0.663134

>  <HIPPO Pose ID>  (1319) 
59749

>  <ref_mols>  (1319) 
x0504b

>  <smiles>  (1319) 
C[C@@H](NC(=O)c1[nH]cnc1C(C)(C)C)C(F)(F)F

>  <HIPPO Compound ID>  (1319) 
350776

>  <alias>  (1319) 
ROOQAWSWAKMUCS-ZCFIWIBFSA-N-P49

>  <subsites>  (1319) 


>  <placement_batch>  (1319) 
CpKRS_FrAncestor_bulkdock_iter2

>  <name>  (1319) 
ROOQAWSWAKMUCS-ZCFIWIBFSA-N-P49

$$$$
NEIICCRGEQNQDQ-ZCFIWIBFSA-N-P48
     RDKit          3D

 17 17  0  0  0  0  0  0  0  0999 V2000
    4.2462  -12.1443   21.8976 C   0  0  0  0  0  0  0  0  0  0  0  0
    3.6517  -11.1618   22.8932 C   0  0  1  0  0  0  0  0  0  0  0  0
    3.1619  -11.9055   24.0318 N   0  0  0  0  0  0  0  0  0  0  0  0
    3.9069  -12.7604   25.0525 C   0  0  0  0  0  0  0  0  0  0  0  0
    5.0435  -12.9455   25.1916 O   0  0  0  0  0  0  0  0  0  0  0  0
    2.9340  -13.4481   25.8836 C   0  0  0  0  0  0  0  0  0  0  0  0
    1.8291  -12.8881   26.4938 N   0  0  0  0  0  0  0  0  0  0  0  0
    1.2075  -13.8623   27.2197 C   0  0  0  0  0  0  0  0  0  0  0  0
    1.8297  -15.0083   27.1146 N   0  0  0  0  0  0  0  0  0  0  0  0
    2.9107  -14.7798   26.2834 C   0  0  0  0  0  0  0  0  0  0  0  0
    3.8164  -15.9280   25.8838 C   0  0  0  0  0  0  0  0  0  0  0  0
    5.1962  -15.8149   26.5417 C   0  0  0  0  0  0  0  0  0  0  0  0
    3.1895  -17.2694   26.3089 C   0  0  0  0  0  0  0  0  0  0  0  0
    3.9759  -15.9951   24.3495 C   0  0  0  0  0  0  0  0  0  0  0  0
    4.7078  -10.1123   23.2410 C   0  0  0  0  0  0  0  0  0  0  0  0
    4.1459   -9.1590   24.0348 F   0  0  0  0  0  0  0  0  0  0  0  0
    5.0850   -9.4625   22.1061 F   0  0  0  0  0  0  0  0  0  0  0  0
  2  1  1  6
  2  3  1  0
  3  4  1  0
  4  5  2  0
  4  6  1  0
  6  7  1  0
  7  8  1  0
  8  9  2  0
  9 10  1  0
 10 11  1  0
 11 12  1  0
 11 13  1  0
 11 14  1  0
  2 15  1  0
 15 16  1  0
 15 17  1  0
 10  6  2  0
M  END
>  <inchikey>  (1320) 
NEIICCRGEQNQDQ-UHFFFAOYSA-N

>  <tags>  (1320) 
fragmenstein_placed,CpKRS_FrAncestor_bulkdock_iter2

>  <ref_pdb>  (1320) 
x0504a

>  <energy_score>  (1320) 
-20.451531

>  <distance_score>  (1320) 
0.644241

>  <HIPPO Pose ID>  (1320) 
59757

>  <ref_mols>  (1320) 
x0504a

>  <smiles>  (1320) 
C[C@@H](NC(=O)c1[nH]cnc1C(C)(C)C)C(F)F

>  <HIPPO Compound ID>  (1320) 
167045

>  <alias>  (1320) 
NEIICCRGEQNQDQ-ZCFIWIBFSA-N-P48

>  <subsites>  (1320) 


>  <placement_batch>  (1320) 
CpKRS_FrAncestor_bulkdock_iter2

>  <name>  (1320) 
NEIICCRGEQNQDQ-ZCFIWIBFSA-N-P48

$$$$
JZKXHAJTCPOHPY-BYPYZUCNSA-N-P47
     RDKit          3D

 15 15  0  0  0  0  0  0  0  0999 V2000
    1.6284    8.8448   42.7443 C   0  0  0  0  0  0  0  0  0  0  0  0
    2.1851    7.5703   42.1237 C   0  0  2  0  0  0  0  0  0  0  0  0
    2.3062    6.4976   43.0939 N   0  0  0  0  0  0  0  0  0  0  0  0
    3.0855    5.1818   43.0295 C   0  0  0  0  0  0  0  0  0  0  0  0
    3.6943    4.7085   42.1599 O   0  0  0  0  0  0  0  0  0  0  0  0
    3.0341    4.5210   44.3522 C   0  0  0  0  0  0  0  0  0  0  0  0
    2.3450    5.0468   45.3902 N   0  0  0  0  0  0  0  0  0  0  0  0
    2.5265    4.1586   46.3842 N   0  0  0  0  0  0  0  0  0  0  0  0
    1.7818    4.2834   47.6072 C   0  0  0  0  0  0  0  0  0  0  0  0
    3.3518    3.1269   46.0666 C   0  0  0  0  0  0  0  0  0  0  0  0
    3.6656    3.3207   44.7503 C   0  0  0  0  0  0  0  0  0  0  0  0
    4.6936    2.1885   43.6865 Br  0  0  0  0  0  0  0  0  0  0  0  0
    3.5426    7.8269   41.4543 C   0  0  0  0  0  0  0  0  0  0  0  0
    3.4762    8.9016   40.6315 F   0  0  0  0  0  0  0  0  0  0  0  0
    4.4807    8.1054   42.4023 F   0  0  0  0  0  0  0  0  0  0  0  0
  2  1  1  1
  2  3  1  0
  3  4  1  0
  4  5  2  0
  4  6  1  0
  6  7  2  0
  7  8  1  0
  8  9  1  0
  8 10  1  0
 10 11  2  0
 11 12  1  0
  2 13  1  0
 13 14  1  0
 13 15  1  0
 11  6  1  0
M  END
>  <inchikey>  (1321) 
JZKXHAJTCPOHPY-UHFFFAOYSA-N

>  <tags>  (1321) 
fragmenstein_placed,CpKRS_FrAncestor_bulkdock_iter2

>  <ref_pdb>  (1321) 
x0504a

>  <energy_score>  (1321) 
-12.682874

>  <distance_score>  (1321) 
0.542531

>  <HIPPO Pose ID>  (1321) 
59762

>  <ref_mols>  (1321) 
x0504c

>  <smiles>  (1321) 
C[C@H](NC(=O)c1nn(C)cc1Br)C(F)F

>  <HIPPO Compound ID>  (1321) 
451879

>  <alias>  (1321) 
JZKXHAJTCPOHPY-BYPYZUCNSA-N-P47

>  <subsites>  (1321) 


>  <placement_batch>  (1321) 
CpKRS_FrAncestor_bulkdock_iter2

>  <name>  (1321) 
JZKXHAJTCPOHPY-BYPYZUCNSA-N-P47

$$$$
QMEDUXCOBDNTAZ-BYPYZUCNSA-N-P47
     RDKit          3D

 15 15  0  0  0  0  0  0  0  0999 V2000
    1.6627    8.7570   42.7145 C   0  0  0  0  0  0  0  0  0  0  0  0
    2.2297    7.4844   42.0971 C   0  0  2  0  0  0  0  0  0  0  0  0
    2.3504    6.4152   43.0726 N   0  0  0  0  0  0  0  0  0  0  0  0
    3.1460    5.1063   43.0218 C   0  0  0  0  0  0  0  0  0  0  0  0
    3.7712    4.6373   42.1610 O   0  0  0  0  0  0  0  0  0  0  0  0
    3.0817    4.4510   44.3449 C   0  0  0  0  0  0  0  0  0  0  0  0
    2.3875    4.9901   45.3723 N   0  0  0  0  0  0  0  0  0  0  0  0
    2.5598    4.1117   46.3734 N   0  0  0  0  0  0  0  0  0  0  0  0
    1.8136    4.2582   47.5936 C   0  0  0  0  0  0  0  0  0  0  0  0
    3.3801    3.0737   46.0658 C   0  0  0  0  0  0  0  0  0  0  0  0
    3.7094    3.2427   44.7453 C   0  0  0  0  0  0  0  0  0  0  0  0
    4.6455    2.1954   43.8037 Cl  0  0  0  0  0  0  0  0  0  0  0  0
    3.5876    7.7583   41.4381 C   0  0  0  0  0  0  0  0  0  0  0  0
    4.5081    8.0669   42.3938 F   0  0  0  0  0  0  0  0  0  0  0  0
    3.5080    8.8241   40.6041 F   0  0  0  0  0  0  0  0  0  0  0  0
  2  1  1  1
  2  3  1  0
  3  4  1  0
  4  5  2  0
  4  6  1  0
  6  7  2  0
  7  8  1  0
  8  9  1  0
  8 10  1  0
 10 11  2  0
 11 12  1  0
  2 13  1  0
 13 14  1  0
 13 15  1  0
 11  6  1  0
M  END
>  <inchikey>  (1322) 
QMEDUXCOBDNTAZ-UHFFFAOYSA-N

>  <tags>  (1322) 
fragmenstein_placed,CpKRS_FrAncestor_bulkdock_iter2

>  <ref_pdb>  (1322) 
x0504a

>  <energy_score>  (1322) 
-16.529081

>  <distance_score>  (1322) 
0.518445

>  <HIPPO Pose ID>  (1322) 
59768

>  <ref_mols>  (1322) 
x0504c

>  <smiles>  (1322) 
C[C@H](NC(=O)c1nn(C)cc1Cl)C(F)F

>  <HIPPO Compound ID>  (1322) 
451880

>  <alias>  (1322) 
QMEDUXCOBDNTAZ-BYPYZUCNSA-N-P47

>  <subsites>  (1322) 


>  <placement_batch>  (1322) 
CpKRS_FrAncestor_bulkdock_iter2

>  <name>  (1322) 
QMEDUXCOBDNTAZ-BYPYZUCNSA-N-P47

$$$$
MDXUQSVLZAKBQU-ZETCQYMHSA-N-P44
     RDKit          3D

 16 17  0  0  0  0  0  0  0  0999 V2000
  -14.0416  -14.1670   46.1830 C   0  0  0  0  0  0  0  0  0  0  0  0
  -12.7694  -14.9545   45.8675 C   0  0  2  0  0  0  0  0  0  0  0  0
  -11.6412  -14.2719   46.4838 N   0  0  0  0  0  0  0  0  0  0  0  0
  -11.0529  -12.8640   46.2220 C   0  0  0  0  0  0  0  0  0  0  0  0
  -11.4288  -12.0045   45.5262 O   0  0  0  0  0  0  0  0  0  0  0  0
   -9.8525  -12.6298   47.0790 C   0  0  0  0  0  0  0  0  0  0  0  0
   -9.0565  -11.5476   46.9047 N   0  0  0  0  0  0  0  0  0  0  0  0
   -8.0995  -11.6737   47.8405 N   0  0  0  0  0  0  0  0  0  0  0  0
   -8.2592  -12.7503   48.6548 C   0  0  0  0  0  0  0  0  0  0  0  0
   -9.3672  -13.3853   48.1718 C   0  0  0  0  0  0  0  0  0  0  0  0
   -9.8808  -14.5147   48.6693 F   0  0  0  0  0  0  0  0  0  0  0  0
  -12.5342  -15.1509   44.3463 C   0  0  0  0  0  0  0  0  0  0  0  0
  -11.4913  -16.2479   44.0798 C   0  0  0  0  0  0  0  0  0  0  0  0
  -12.2691  -17.5428   43.8359 C   0  0  0  0  0  0  0  0  0  0  0  0
  -13.7424  -17.1615   43.8192 C   0  0  0  0  0  0  0  0  0  0  0  0
  -13.7386  -15.6669   43.5521 C   0  0  0  0  0  0  0  0  0  0  0  0
  2  1  1  6
  2  3  1  0
  3  4  1  0
  4  5  2  0
  4  6  1  0
  6  7  2  0
  7  8  1  0
  8  9  1  0
  9 10  2  0
 10 11  1  0
  2 12  1  0
 12 13  1  0
 13 14  1  0
 14 15  1  0
 15 16  1  0
 10  6  1  0
 16 12  1  0
M  END
>  <inchikey>  (1323) 
MDXUQSVLZAKBQU-UHFFFAOYSA-N

>  <tags>  (1323) 
fragmenstein_placed,CpKRS_FrAncestor_bulkdock_iter2

>  <ref_pdb>  (1323) 
x0504a

>  <energy_score>  (1323) 
-2.106198

>  <distance_score>  (1323) 
0.387449

>  <HIPPO Pose ID>  (1323) 
59773

>  <ref_mols>  (1323) 
x0502b

>  <smiles>  (1323) 
C[C@H](NC(=O)c1n[nH]cc1F)C1CCCC1

>  <HIPPO Compound ID>  (1323) 
451881

>  <alias>  (1323) 
MDXUQSVLZAKBQU-ZETCQYMHSA-N-P44

>  <subsites>  (1323) 


>  <placement_batch>  (1323) 
CpKRS_FrAncestor_bulkdock_iter2

>  <name>  (1323) 
MDXUQSVLZAKBQU-ZETCQYMHSA-N-P44

$$$$
ZLXADJHRDFZDLO-ZETCQYMHSA-N-P44
     RDKit          3D

 16 17  0  0  0  0  0  0  0  0999 V2000
  -13.9737  -14.4495   46.3499 C   0  0  0  0  0  0  0  0  0  0  0  0
  -12.6675  -15.0968   45.8897 C   0  0  2  0  0  0  0  0  0  0  0  0
  -11.5515  -14.3555   46.4604 N   0  0  0  0  0  0  0  0  0  0  0  0
  -11.1793  -12.8592   46.3506 C   0  0  0  0  0  0  0  0  0  0  0  0
  -11.7501  -11.9730   45.8498 O   0  0  0  0  0  0  0  0  0  0  0  0
   -9.9058  -12.5721   47.0645 C   0  0  0  0  0  0  0  0  0  0  0  0
   -9.1808  -11.4887   46.7091 N   0  0  0  0  0  0  0  0  0  0  0  0
   -8.0859  -11.4482   47.5484 O   0  0  0  0  0  0  0  0  0  0  0  0
   -8.1482  -12.4790   48.4197 C   0  0  0  0  0  0  0  0  0  0  0  0
   -9.2703  -13.2129   48.1599 C   0  0  0  0  0  0  0  0  0  0  0  0
   -9.8204  -14.7111   49.1332 Br  0  0  0  0  0  0  0  0  0  0  0  0
  -12.5280  -15.1857   44.3476 C   0  0  0  0  0  0  0  0  0  0  0  0
  -13.7681  -15.6704   43.5905 C   0  0  0  0  0  0  0  0  0  0  0  0
  -13.7462  -17.1777   43.7724 C   0  0  0  0  0  0  0  0  0  0  0  0
  -12.2699  -17.5455   43.7151 C   0  0  0  0  0  0  0  0  0  0  0  0
  -11.4920  -16.2495   43.9526 C   0  0  0  0  0  0  0  0  0  0  0  0
  2  1  1  6
  2  3  1  0
  3  4  1  0
  4  5  2  0
  4  6  1  0
  6  7  2  0
  7  8  1  0
  8  9  1  0
  9 10  2  0
 10 11  1  0
  2 12  1  0
 12 13  1  0
 13 14  1  0
 14 15  1  0
 15 16  1  0
 10  6  1  0
 16 12  1  0
M  END
>  <inchikey>  (1324) 
ZLXADJHRDFZDLO-UHFFFAOYSA-N

>  <tags>  (1324) 
fragmenstein_placed,CpKRS_FrAncestor_bulkdock_iter2

>  <ref_pdb>  (1324) 
x0504a

>  <energy_score>  (1324) 
-7.76551

>  <distance_score>  (1324) 
0.321523

>  <HIPPO Pose ID>  (1324) 
59776

>  <ref_mols>  (1324) 
x0502b

>  <smiles>  (1324) 
C[C@H](NC(=O)c1nocc1Br)C1CCCC1

>  <HIPPO Compound ID>  (1324) 
451882

>  <alias>  (1324) 
ZLXADJHRDFZDLO-ZETCQYMHSA-N-P44

>  <subsites>  (1324) 


>  <placement_batch>  (1324) 
CpKRS_FrAncestor_bulkdock_iter2

>  <name>  (1324) 
ZLXADJHRDFZDLO-ZETCQYMHSA-N-P44

$$$$
DQKHOARKUSDAEK-ZETCQYMHSA-N-P44
     RDKit          3D

 16 17  0  0  0  0  0  0  0  0999 V2000
  -13.9909  -14.3651   46.2944 C   0  0  0  0  0  0  0  0  0  0  0  0
  -12.6990  -15.0629   45.8695 C   0  0  2  0  0  0  0  0  0  0  0  0
  -11.5713  -14.3455   46.4457 N   0  0  0  0  0  0  0  0  0  0  0  0
  -11.1161  -12.8782   46.2654 C   0  0  0  0  0  0  0  0  0  0  0  0
  -11.6178  -11.9964   45.6880 O   0  0  0  0  0  0  0  0  0  0  0  0
   -9.8738  -12.5984   47.0387 C   0  0  0  0  0  0  0  0  0  0  0  0
   -9.1421  -11.5035   46.7361 N   0  0  0  0  0  0  0  0  0  0  0  0
   -8.0814  -11.4788   47.6162 O   0  0  0  0  0  0  0  0  0  0  0  0
   -8.1725  -12.5291   48.4590 C   0  0  0  0  0  0  0  0  0  0  0  0
   -9.2819  -13.2683   48.1479 C   0  0  0  0  0  0  0  0  0  0  0  0
   -9.8074  -14.6538   48.9711 Cl  0  0  0  0  0  0  0  0  0  0  0  0
  -12.5384  -15.1843   44.3316 C   0  0  0  0  0  0  0  0  0  0  0  0
  -11.4978  -16.2560   43.9707 C   0  0  0  0  0  0  0  0  0  0  0  0
  -12.2735  -17.5540   43.7371 C   0  0  0  0  0  0  0  0  0  0  0  0
  -13.7502  -17.1863   43.7798 C   0  0  0  0  0  0  0  0  0  0  0  0
  -13.7708  -15.6826   43.5707 C   0  0  0  0  0  0  0  0  0  0  0  0
  2  1  1  6
  2  3  1  0
  3  4  1  0
  4  5  2  0
  4  6  1  0
  6  7  2  0
  7  8  1  0
  8  9  1  0
  9 10  2  0
 10 11  1  0
  2 12  1  0
 12 13  1  0
 13 14  1  0
 14 15  1  0
 15 16  1  0
 10  6  1  0
 16 12  1  0
M  END
>  <inchikey>  (1325) 
DQKHOARKUSDAEK-UHFFFAOYSA-N

>  <tags>  (1325) 
fragmenstein_placed,CpKRS_FrAncestor_bulkdock_iter2

>  <ref_pdb>  (1325) 
x0504a

>  <energy_score>  (1325) 
-6.388681

>  <distance_score>  (1325) 
0.321664

>  <HIPPO Pose ID>  (1325) 
59779

>  <ref_mols>  (1325) 
x0502b

>  <smiles>  (1325) 
C[C@H](NC(=O)c1nocc1Cl)C1CCCC1

>  <HIPPO Compound ID>  (1325) 
451883

>  <alias>  (1325) 
DQKHOARKUSDAEK-ZETCQYMHSA-N-P44

>  <subsites>  (1325) 


>  <placement_batch>  (1325) 
CpKRS_FrAncestor_bulkdock_iter2

>  <name>  (1325) 
DQKHOARKUSDAEK-ZETCQYMHSA-N-P44

$$$$
RWZYCLZWQWRENM-ZETCQYMHSA-N-P45
     RDKit          3D

 16 17  0  0  0  0  0  0  0  0999 V2000
    4.8617  -12.3439   22.2881 C   0  0  0  0  0  0  0  0  0  0  0  0
    4.8126  -11.4406   23.5030 C   0  0  2  0  0  0  0  0  0  0  0  0
    4.0154  -12.1089   24.4962 N   0  0  0  0  0  0  0  0  0  0  0  0
    4.3088  -13.3673   25.3323 C   0  0  0  0  0  0  0  0  0  0  0  0
    5.2718  -14.0168   25.4050 O   0  0  0  0  0  0  0  0  0  0  0  0
    3.1192  -13.6886   26.0933 C   0  0  0  0  0  0  0  0  0  0  0  0
    1.9861  -12.9135   25.9589 O   0  0  0  0  0  0  0  0  0  0  0  0
    1.1236  -13.4513   26.8546 C   0  0  0  0  0  0  0  0  0  0  0  0
    1.5592  -14.4870   27.5235 N   0  0  0  0  0  0  0  0  0  0  0  0
    2.8324  -14.6530   27.0308 C   0  0  0  0  0  0  0  0  0  0  0  0
    3.9834  -15.9833   27.6569 Br  0  0  0  0  0  0  0  0  0  0  0  0
    4.2889  -10.0420   23.1716 C   0  0  0  0  0  0  0  0  0  0  0  0
    4.4685   -9.0617   24.3470 C   0  0  0  0  0  0  0  0  0  0  0  0
    5.4220   -7.9874   23.8436 C   0  0  0  0  0  0  0  0  0  0  0  0
    5.1137   -7.9278   22.3621 C   0  0  0  0  0  0  0  0  0  0  0  0
    5.0302   -9.3910   21.9902 C   0  0  0  0  0  0  0  0  0  0  0  0
  2  1  1  6
  2  3  1  0
  3  4  1  0
  4  5  2  0
  4  6  1  0
  6  7  1  0
  7  8  1  0
  8  9  2  0
  9 10  1  0
 10 11  1  0
  2 12  1  0
 12 13  1  0
 13 14  1  0
 14 15  1  0
 15 16  1  0
 10  6  2  0
 16 12  1  0
M  END
>  <inchikey>  (1326) 
RWZYCLZWQWRENM-UHFFFAOYSA-N

>  <tags>  (1326) 
fragmenstein_placed,CpKRS_FrAncestor_bulkdock_iter2

>  <ref_pdb>  (1326) 
x0504a

>  <energy_score>  (1326) 
-11.526926

>  <distance_score>  (1326) 
0.694912

>  <HIPPO Pose ID>  (1326) 
59781

>  <ref_mols>  (1326) 
x0502a

>  <smiles>  (1326) 
C[C@H](NC(=O)c1ocnc1Br)C1CCCC1

>  <HIPPO Compound ID>  (1326) 
451884

>  <alias>  (1326) 
RWZYCLZWQWRENM-ZETCQYMHSA-N-P45

>  <subsites>  (1326) 


>  <placement_batch>  (1326) 
CpKRS_FrAncestor_bulkdock_iter2

>  <name>  (1326) 
RWZYCLZWQWRENM-ZETCQYMHSA-N-P45

$$$$
SMNSIEMVYLALSM-ZETCQYMHSA-N-P44
     RDKit          3D

 16 17  0  0  0  0  0  0  0  0999 V2000
  -14.0347  -14.0901   46.0716 C   0  0  0  0  0  0  0  0  0  0  0  0
  -12.7719  -14.9051   45.7907 C   0  0  2  0  0  0  0  0  0  0  0  0
  -11.6405  -14.2337   46.4147 N   0  0  0  0  0  0  0  0  0  0  0  0
  -11.0417  -12.8320   46.1623 C   0  0  0  0  0  0  0  0  0  0  0  0
  -11.4077  -11.9675   45.4699 O   0  0  0  0  0  0  0  0  0  0  0  0
   -9.8726  -12.6092   47.0107 C   0  0  0  0  0  0  0  0  0  0  0  0
   -9.1273  -11.4860   46.7352 O   0  0  0  0  0  0  0  0  0  0  0  0
   -8.0746  -11.3742   47.6323 N   0  0  0  0  0  0  0  0  0  0  0  0
   -8.1877  -12.4318   48.4362 C   0  0  0  0  0  0  0  0  0  0  0  0
   -9.2949  -13.2211   48.0985 C   0  0  0  0  0  0  0  0  0  0  0  0
   -9.7882  -14.7457   49.0606 Br  0  0  0  0  0  0  0  0  0  0  0  0
  -12.5146  -15.1341   44.2786 C   0  0  0  0  0  0  0  0  0  0  0  0
  -13.7147  -15.6476   43.4764 C   0  0  0  0  0  0  0  0  0  0  0  0
  -13.7458  -17.1362   43.7738 C   0  0  0  0  0  0  0  0  0  0  0  0
  -12.2789  -17.5395   43.8176 C   0  0  0  0  0  0  0  0  0  0  0  0
  -11.4849  -16.2525   44.0513 C   0  0  0  0  0  0  0  0  0  0  0  0
  2  1  1  6
  2  3  1  0
  3  4  1  0
  4  5  2  0
  4  6  1  0
  6  7  1  0
  7  8  1  0
  8  9  2  0
  9 10  1  0
 10 11  1  0
  2 12  1  0
 12 13  1  0
 13 14  1  0
 14 15  1  0
 15 16  1  0
 10  6  2  0
 16 12  1  0
M  END
>  <inchikey>  (1327) 
SMNSIEMVYLALSM-UHFFFAOYSA-N

>  <tags>  (1327) 
fragmenstein_placed,CpKRS_FrAncestor_bulkdock_iter2

>  <ref_pdb>  (1327) 
x0504a

>  <energy_score>  (1327) 
-6.408963

>  <distance_score>  (1327) 
0.38354

>  <HIPPO Pose ID>  (1327) 
59785

>  <ref_mols>  (1327) 
x0502b

>  <smiles>  (1327) 
C[C@H](NC(=O)c1oncc1Br)C1CCCC1

>  <HIPPO Compound ID>  (1327) 
451885

>  <alias>  (1327) 
SMNSIEMVYLALSM-ZETCQYMHSA-N-P44

>  <subsites>  (1327) 


>  <placement_batch>  (1327) 
CpKRS_FrAncestor_bulkdock_iter2

>  <name>  (1327) 
SMNSIEMVYLALSM-ZETCQYMHSA-N-P44

$$$$
ZIWVXFTUKUVPOZ-VIFPVBQESA-N-P44
     RDKit          3D

 17 18  0  0  0  0  0  0  0  0999 V2000
  -13.7087  -15.0459   46.6782 C   0  0  0  0  0  0  0  0  0  0  0  0
  -12.4343  -15.4670   45.9472 C   0  0  2  0  0  0  0  0  0  0  0  0
  -11.3218  -14.6688   46.4411 N   0  0  0  0  0  0  0  0  0  0  0  0
  -11.1595  -13.1373   46.5566 C   0  0  0  0  0  0  0  0  0  0  0  0
  -11.8603  -12.2745   46.2032 O   0  0  0  0  0  0  0  0  0  0  0  0
   -9.9110  -12.8016   47.2604 C   0  0  0  0  0  0  0  0  0  0  0  0
   -9.0318  -11.4194   46.7184 S   0  0  0  0  0  0  0  0  0  0  0  0
   -7.8550  -11.5932   47.9410 C   0  0  0  0  0  0  0  0  0  0  0  0
   -8.1174  -12.6680   48.7582 C   0  0  0  0  0  0  0  0  0  0  0  0
   -9.3076  -13.3618   48.3753 C   0  0  0  0  0  0  0  0  0  0  0  0
   -9.8282  -14.4791   49.1055 C   0  0  0  0  0  0  0  0  0  0  0  0
  -10.2773  -15.3819   49.6794 N   0  0  0  0  0  0  0  0  0  0  0  0
  -12.5227  -15.3468   44.4032 C   0  0  0  0  0  0  0  0  0  0  0  0
  -13.8476  -15.7684   43.7626 C   0  0  0  0  0  0  0  0  0  0  0  0
  -13.7929  -17.2866   43.7432 C   0  0  0  0  0  0  0  0  0  0  0  0
  -12.3204  -17.6265   43.5473 C   0  0  0  0  0  0  0  0  0  0  0  0
  -11.5468  -16.3204   43.7274 C   0  0  0  0  0  0  0  0  0  0  0  0
  2  1  1  1
  2  3  1  0
  3  4  1  0
  4  5  2  0
  4  6  1  0
  6  7  1  0
  7  8  1  0
  8  9  2  0
  9 10  1  0
 10 11  1  0
 11 12  3  0
  2 13  1  0
 13 14  1  0
 14 15  1  0
 15 16  1  0
 16 17  1  0
 10  6  2  0
 17 13  1  0
M  END
>  <inchikey>  (1328) 
ZIWVXFTUKUVPOZ-UHFFFAOYSA-N

>  <tags>  (1328) 
fragmenstein_placed,CpKRS_FrAncestor_bulkdock_iter2

>  <ref_pdb>  (1328) 
x0504a

>  <energy_score>  (1328) 
-5.159548

>  <distance_score>  (1328) 
0.291718

>  <HIPPO Pose ID>  (1328) 
59788

>  <ref_mols>  (1328) 
x0502b

>  <smiles>  (1328) 
C[C@H](NC(=O)c1sccc1C#N)C1CCCC1

>  <HIPPO Compound ID>  (1328) 
166991

>  <alias>  (1328) 
ZIWVXFTUKUVPOZ-VIFPVBQESA-N-P44

>  <subsites>  (1328) 


>  <placement_batch>  (1328) 
CpKRS_FrAncestor_bulkdock_iter2

>  <name>  (1328) 
ZIWVXFTUKUVPOZ-VIFPVBQESA-N-P44

$$$$
QQBNINAJYFLGIW-QMMMGPOBSA-N-P45
     RDKit          3D

 16 17  0  0  0  0  0  0  0  0999 V2000
    4.8935  -12.3487   22.2661 C   0  0  0  0  0  0  0  0  0  0  0  0
    4.8685  -11.4575   23.4908 C   0  0  2  0  0  0  0  0  0  0  0  0
    4.1470  -12.1711   24.5098 N   0  0  0  0  0  0  0  0  0  0  0  0
    4.5365  -13.4227   25.3231 C   0  0  0  0  0  0  0  0  0  0  0  0
    5.5347  -14.0264   25.3497 O   0  0  0  0  0  0  0  0  0  0  0  0
    3.4027  -13.8651   26.1510 C   0  0  0  0  0  0  0  0  0  0  0  0
    1.8859  -13.0488   26.1397 S   0  0  0  0  0  0  0  0  0  0  0  0
    1.2828  -14.0280   27.3914 C   0  0  0  0  0  0  0  0  0  0  0  0
    2.1443  -15.0423   27.7281 C   0  0  0  0  0  0  0  0  0  0  0  0
    3.3564  -14.9533   27.0057 C   0  0  0  0  0  0  0  0  0  0  0  0
    4.3572  -15.8547   27.1707 N   0  0  0  0  0  0  0  0  0  0  0  0
    4.2866  -10.0747   23.1857 C   0  0  0  0  0  0  0  0  0  0  0  0
    4.9948   -9.3926   21.9981 C   0  0  0  0  0  0  0  0  0  0  0  0
    5.0944   -7.9369   22.3948 C   0  0  0  0  0  0  0  0  0  0  0  0
    5.4126   -8.0223   23.8727 C   0  0  0  0  0  0  0  0  0  0  0  0
    4.4541   -9.0975   24.3639 C   0  0  0  0  0  0  0  0  0  0  0  0
  2  1  1  6
  2  3  1  0
  3  4  1  0
  4  5  2  0
  4  6  1  0
  6  7  1  0
  7  8  1  0
  8  9  2  0
  9 10  1  0
 10 11  1  0
  2 12  1  0
 12 13  1  0
 13 14  1  0
 14 15  1  0
 15 16  1  0
 10  6  2  0
 16 12  1  0
M  END
>  <inchikey>  (1329) 
QQBNINAJYFLGIW-UHFFFAOYSA-N

>  <tags>  (1329) 
fragmenstein_placed,CpKRS_FrAncestor_bulkdock_iter2

>  <ref_pdb>  (1329) 
x0504a

>  <energy_score>  (1329) 
-23.639349

>  <distance_score>  (1329) 
0.507449

>  <HIPPO Pose ID>  (1329) 
59790

>  <ref_mols>  (1329) 
x0502a

>  <smiles>  (1329) 
C[C@H](NC(=O)c1sccc1N)C1CCCC1

>  <HIPPO Compound ID>  (1329) 
451886

>  <alias>  (1329) 
QQBNINAJYFLGIW-QMMMGPOBSA-N-P45

>  <subsites>  (1329) 


>  <placement_batch>  (1329) 
CpKRS_FrAncestor_bulkdock_iter2

>  <name>  (1329) 
QQBNINAJYFLGIW-QMMMGPOBSA-N-P45

$$$$
KQPHWRMYRFLVGN-RXMQYKEDSA-N-P48
     RDKit          3D

 15 15  0  0  0  0  0  0  0  0999 V2000
    4.3158  -12.3089   22.0155 C   0  0  0  0  0  0  0  0  0  0  0  0
    3.7416  -11.2918   22.9931 C   0  0  1  0  0  0  0  0  0  0  0  0
    3.2512  -12.0123   24.1530 N   0  0  0  0  0  0  0  0  0  0  0  0
    3.9325  -13.0781   25.0290 C   0  0  0  0  0  0  0  0  0  0  0  0
    5.0205  -13.4904   25.0056 O   0  0  0  0  0  0  0  0  0  0  0  0
    2.9484  -13.6096   25.9541 C   0  0  0  0  0  0  0  0  0  0  0  0
    1.6984  -13.0339   26.0573 O   0  0  0  0  0  0  0  0  0  0  0  0
    1.0732  -13.7818   27.0092 C   0  0  0  0  0  0  0  0  0  0  0  0
    1.7754  -14.7757   27.4964 N   0  0  0  0  0  0  0  0  0  0  0  0
    2.9682  -14.6732   26.8262 C   0  0  0  0  0  0  0  0  0  0  0  0
    4.3730  -15.8816   27.0843 Br  0  0  0  0  0  0  0  0  0  0  0  0
    4.7515  -10.1665   23.3303 C   0  0  0  0  0  0  0  0  0  0  0  0
    4.1154   -9.1184   24.2358 C   0  0  0  0  0  0  0  0  0  0  0  0
    5.3104   -9.4747   22.0850 C   0  0  0  0  0  0  0  0  0  0  0  0
    5.8060  -10.6887   24.0159 F   0  0  0  0  0  0  0  0  0  0  0  0
  2  1  1  6
  2  3  1  0
  3  4  1  0
  4  5  2  0
  4  6  1  0
  6  7  1  0
  7  8  1  0
  8  9  2  0
  9 10  1  0
 10 11  1  0
  2 12  1  0
 12 13  1  0
 12 14  1  0
 12 15  1  0
 10  6  2  0
M  END
>  <inchikey>  (1330) 
KQPHWRMYRFLVGN-UHFFFAOYSA-N

>  <tags>  (1330) 
fragmenstein_placed,CpKRS_FrAncestor_bulkdock_iter2

>  <ref_pdb>  (1330) 
x0504a

>  <energy_score>  (1330) 
-17.265389

>  <distance_score>  (1330) 
0.570403

>  <HIPPO Pose ID>  (1330) 
59796

>  <ref_mols>  (1330) 
x0504a

>  <smiles>  (1330) 
C[C@@H](NC(=O)c1ocnc1Br)C(C)(C)F

>  <HIPPO Compound ID>  (1330) 
451887

>  <alias>  (1330) 
KQPHWRMYRFLVGN-RXMQYKEDSA-N-P48

>  <subsites>  (1330) 


>  <placement_batch>  (1330) 
CpKRS_FrAncestor_bulkdock_iter2

>  <name>  (1330) 
KQPHWRMYRFLVGN-RXMQYKEDSA-N-P48

$$$$
DGEJOMYMSPCROD-RXMQYKEDSA-N-P49
     RDKit          3D

 18 18  0  0  0  0  0  0  0  0999 V2000
    4.5782  -11.6768   22.0801 C   0  0  0  0  0  0  0  0  0  0  0  0
    3.9769  -10.8551   23.2136 C   0  0  1  0  0  0  0  0  0  0  0  0
    3.4460  -11.7480   24.2343 N   0  0  0  0  0  0  0  0  0  0  0  0
    4.0158  -13.0586   24.8129 C   0  0  0  0  0  0  0  0  0  0  0  0
    5.0346  -13.5889   24.6195 O   0  0  0  0  0  0  0  0  0  0  0  0
    3.0591  -13.6152   25.7514 C   0  0  0  0  0  0  0  0  0  0  0  0
    1.8584  -12.9804   25.9768 O   0  0  0  0  0  0  0  0  0  0  0  0
    1.2489  -13.7469   26.9156 C   0  0  0  0  0  0  0  0  0  0  0  0
    1.9134  -14.8090   27.2940 N   0  0  0  0  0  0  0  0  0  0  0  0
    3.0989  -14.7379   26.5575 C   0  0  0  0  0  0  0  0  0  0  0  0
    4.1920  -15.7450   26.6604 C   0  0  0  0  0  0  0  0  0  0  0  0
    4.2877  -16.5110   25.5408 F   0  0  0  0  0  0  0  0  0  0  0  0
    5.4167  -15.1971   26.8680 F   0  0  0  0  0  0  0  0  0  0  0  0
    3.9876  -16.5966   27.6987 F   0  0  0  0  0  0  0  0  0  0  0  0
    4.9665   -9.8080   23.7887 C   0  0  0  0  0  0  0  0  0  0  0  0
    4.2934   -8.9221   24.8307 C   0  0  0  0  0  0  0  0  0  0  0  0
    5.5771   -8.9119   22.7120 C   0  0  0  0  0  0  0  0  0  0  0  0
    5.9924  -10.4542   24.4112 F   0  0  0  0  0  0  0  0  0  0  0  0
  2  1  1  6
  2  3  1  0
  3  4  1  0
  4  5  2  0
  4  6  1  0
  6  7  1  0
  7  8  1  0
  8  9  2  0
  9 10  1  0
 10 11  1  0
 11 12  1  0
 11 13  1  0
 11 14  1  0
  2 15  1  0
 15 16  1  0
 15 17  1  0
 15 18  1  0
 10  6  2  0
M  END
>  <inchikey>  (1331) 
DGEJOMYMSPCROD-UHFFFAOYSA-N

>  <tags>  (1331) 
fragmenstein_placed,CpKRS_FrAncestor_bulkdock_iter2

>  <ref_pdb>  (1331) 
x0504a

>  <energy_score>  (1331) 
-8.555638

>  <distance_score>  (1331) 
0.52214

>  <HIPPO Pose ID>  (1331) 
59803

>  <ref_mols>  (1331) 
x0504b

>  <smiles>  (1331) 
C[C@@H](NC(=O)c1ocnc1C(F)(F)F)C(C)(C)F

>  <HIPPO Compound ID>  (1331) 
342396

>  <alias>  (1331) 
DGEJOMYMSPCROD-RXMQYKEDSA-N-P49

>  <subsites>  (1331) 


>  <placement_batch>  (1331) 
CpKRS_FrAncestor_bulkdock_iter2

>  <name>  (1331) 
DGEJOMYMSPCROD-RXMQYKEDSA-N-P49

$$$$
KDYGLJNVWFVLOR-RXMQYKEDSA-N-P48
     RDKit          3D

 15 15  0  0  0  0  0  0  0  0999 V2000
    4.4071  -12.2098   21.9268 C   0  0  0  0  0  0  0  0  0  0  0  0
    3.7971  -11.2211   22.9093 C   0  0  1  0  0  0  0  0  0  0  0  0
    3.3070  -11.9763   24.0449 N   0  0  0  0  0  0  0  0  0  0  0  0
    4.0338  -12.9567   24.9820 C   0  0  0  0  0  0  0  0  0  0  0  0
    5.1577  -13.2536   25.0375 O   0  0  0  0  0  0  0  0  0  0  0  0
    3.0721  -13.6260   25.8621 C   0  0  0  0  0  0  0  0  0  0  0  0
    1.4593  -13.0973   26.0944 S   0  0  0  0  0  0  0  0  0  0  0  0
    1.0189  -14.2669   27.1814 N   0  0  0  0  0  0  0  0  0  0  0  0
    2.0723  -15.0493   27.3932 C   0  0  0  0  0  0  0  0  0  0  0  0
    3.2383  -14.7434   26.6523 C   0  0  0  0  0  0  0  0  0  0  0  0
    4.7724  -15.8127   26.7822 Br  0  0  0  0  0  0  0  0  0  0  0  0
    4.7781  -10.0825   23.2808 C   0  0  0  0  0  0  0  0  0  0  0  0
    5.3054   -9.3361   22.0539 C   0  0  0  0  0  0  0  0  0  0  0  0
    4.1223   -9.0868   24.2296 C   0  0  0  0  0  0  0  0  0  0  0  0
    5.8556  -10.5966   23.9351 F   0  0  0  0  0  0  0  0  0  0  0  0
  2  1  1  6
  2  3  1  0
  3  4  1  0
  4  5  2  0
  4  6  1  0
  6  7  1  0
  7  8  1  0
  8  9  2  0
  9 10  1  0
 10 11  1  0
  2 12  1  0
 12 13  1  0
 12 14  1  0
 12 15  1  0
 10  6  2  0
M  END
>  <inchikey>  (1332) 
KDYGLJNVWFVLOR-UHFFFAOYSA-N

>  <tags>  (1332) 
fragmenstein_placed,CpKRS_FrAncestor_bulkdock_iter2

>  <ref_pdb>  (1332) 
x0504a

>  <energy_score>  (1332) 
-12.914224

>  <distance_score>  (1332) 
0.552538

>  <HIPPO Pose ID>  (1332) 
59820

>  <ref_mols>  (1332) 
x0504a

>  <smiles>  (1332) 
C[C@@H](NC(=O)c1sncc1Br)C(C)(C)F

>  <HIPPO Compound ID>  (1332) 
451890

>  <alias>  (1332) 
KDYGLJNVWFVLOR-RXMQYKEDSA-N-P48

>  <subsites>  (1332) 


>  <placement_batch>  (1332) 
CpKRS_FrAncestor_bulkdock_iter2

>  <name>  (1332) 
KDYGLJNVWFVLOR-RXMQYKEDSA-N-P48

$$$$
JZUZMCWSIUAEMN-YFKPBYRVSA-N-P55
     RDKit          3D

 17 18  0  0  0  0  0  0  0  0999 V2000
    1.5889  -12.6024   22.8880 C   0  0  0  0  0  0  0  0  0  0  0  0
    3.0539  -12.6397   23.2957 C   0  0  2  0  0  0  0  0  0  0  0  0
    3.1072  -13.2427   24.5859 N   0  0  0  0  0  0  0  0  0  0  0  0
    4.2540  -13.9422   25.3064 C   0  0  0  0  0  0  0  0  0  0  0  0
    5.3672  -14.0758   25.0000 O   0  0  0  0  0  0  0  0  0  0  0  0
    3.6584  -14.5545   26.5013 C   0  0  0  0  0  0  0  0  0  0  0  0
    2.3720  -14.3102   26.8688 N   0  0  0  0  0  0  0  0  0  0  0  0
    2.1867  -15.1137   27.9336 N   0  0  0  0  0  0  0  0  0  0  0  0
    3.2873  -15.8430   28.2709 C   0  0  0  0  0  0  0  0  0  0  0  0
    4.2427  -15.4845   27.3627 C   0  0  0  0  0  0  0  0  0  0  0  0
    5.4953  -15.9359   27.3142 F   0  0  0  0  0  0  0  0  0  0  0  0
    3.6566  -11.2667   23.3350 C   0  0  0  0  0  0  0  0  0  0  0  0
    3.4320  -10.2638   24.2603 C   0  0  0  0  0  0  0  0  0  0  0  0
    4.1541   -9.0756   23.9776 C   0  0  0  0  0  0  0  0  0  0  0  0
    4.8129   -9.1963   22.7870 C   0  0  0  0  0  0  0  0  0  0  0  0
    5.5974   -7.9369   21.9635 Cl  0  0  0  0  0  0  0  0  0  0  0  0
    4.7339  -10.7372   22.1060 S   0  0  0  0  0  0  0  0  0  0  0  0
  2  1  1  1
  2  3  1  0
  3  4  1  0
  4  5  2  0
  4  6  1  0
  6  7  2  0
  7  8  1  0
  8  9  1  0
  9 10  2  0
 10 11  1  0
  2 12  1  0
 12 13  2  0
 13 14  1  0
 14 15  2  0
 15 16  1  0
 15 17  1  0
 10  6  1  0
 17 12  1  0
M  END
>  <inchikey>  (1333) 
JZUZMCWSIUAEMN-UHFFFAOYSA-N

>  <tags>  (1333) 
fragmenstein_placed,CpKRS_FrAncestor_bulkdock_iter2

>  <ref_pdb>  (1333) 
x0504a

>  <energy_score>  (1333) 
-18.551802

>  <distance_score>  (1333) 
0.962455

>  <HIPPO Pose ID>  (1333) 
59824

>  <ref_mols>  (1333) 
x0646a

>  <smiles>  (1333) 
C[C@H](NC(=O)c1n[nH]cc1F)c1ccc(Cl)s1

>  <HIPPO Compound ID>  (1333) 
165558

>  <alias>  (1333) 
JZUZMCWSIUAEMN-YFKPBYRVSA-N-P55

>  <subsites>  (1333) 


>  <placement_batch>  (1333) 
CpKRS_FrAncestor_bulkdock_iter2

>  <name>  (1333) 
JZUZMCWSIUAEMN-YFKPBYRVSA-N-P55

$$$$
KNVPMSMUGAKEPG-LURJTMIESA-N-P47
     RDKit          3D

 15 15  0  0  0  0  0  0  0  0999 V2000
    4.0640    4.1395   42.2275 C   0  0  0  0  0  0  0  0  0  0  0  0
    2.9913    4.8069   43.0842 C   0  0  2  0  0  0  0  0  0  0  0  0
    3.1523    6.2160   42.9109 N   0  0  0  0  0  0  0  0  0  0  0  0
    2.3520    7.2258   42.0309 C   0  0  0  0  0  0  0  0  0  0  0  0
    1.3947    7.0682   41.3777 O   0  0  0  0  0  0  0  0  0  0  0  0
    3.1505    8.5433   42.0873 C   0  0  0  0  0  0  0  0  0  0  0  0
    3.4861    9.0302   40.6955 C   0  0  0  0  0  0  0  0  0  0  0  0
    4.3302    8.3465   42.7604 F   0  0  0  0  0  0  0  0  0  0  0  0
    2.4773    9.5169   42.7534 F   0  0  0  0  0  0  0  0  0  0  0  0
    3.0715    4.3976   44.5210 C   0  0  0  0  0  0  0  0  0  0  0  0
    3.6416    3.2570   45.0661 C   0  0  0  0  0  0  0  0  0  0  0  0
    3.2979    3.2689   46.4199 C   0  0  0  0  0  0  0  0  0  0  0  0
    2.6048    4.3524   46.7491 N   0  0  0  0  0  0  0  0  0  0  0  0
    2.4743    5.0315   45.5911 N   0  0  0  0  0  0  0  0  0  0  0  0
    1.7835    6.2989   45.6409 C   0  0  0  0  0  0  0  0  0  0  0  0
  2  1  1  6
  2  3  1  0
  3  4  1  0
  4  5  2  0
  4  6  1  0
  6  7  1  0
  6  8  1  0
  6  9  1  0
  2 10  1  0
 10 11  2  0
 11 12  1  0
 12 13  2  0
 13 14  1  0
 14 15  1  0
 14 10  1  0
M  END
>  <inchikey>  (1334) 
KNVPMSMUGAKEPG-UHFFFAOYSA-N

>  <tags>  (1334) 
fragmenstein_placed,CpKRS_FrAncestor_bulkdock_iter2

>  <ref_pdb>  (1334) 
x0504a

>  <energy_score>  (1334) 
-11.040587

>  <distance_score>  (1334) 
0.670543

>  <HIPPO Pose ID>  (1334) 
59841

>  <ref_mols>  (1334) 
x0504c

>  <smiles>  (1334) 
C[C@H](NC(=O)C(C)(F)F)c1ccnn1C

>  <HIPPO Compound ID>  (1334) 
451891

>  <alias>  (1334) 
KNVPMSMUGAKEPG-LURJTMIESA-N-P47

>  <subsites>  (1334) 


>  <placement_batch>  (1334) 
CpKRS_FrAncestor_bulkdock_iter2

>  <name>  (1334) 
KNVPMSMUGAKEPG-LURJTMIESA-N-P47

$$$$
MCJUJTRBGZXOBO-YFKPBYRVSA-N-P49
     RDKit          3D

 14 14  0  0  0  0  0  0  0  0999 V2000
    4.9306  -14.2027   24.1363 C   0  0  0  0  0  0  0  0  0  0  0  0
    3.6634  -13.3720   24.3074 C   0  0  2  0  0  0  0  0  0  0  0  0
    4.0373  -11.9836   24.3249 N   0  0  0  0  0  0  0  0  0  0  0  0
    4.4337  -11.0282   23.1592 C   0  0  0  0  0  0  0  0  0  0  0  0
    4.4409  -11.2061   22.0029 O   0  0  0  0  0  0  0  0  0  0  0  0
    4.9550   -9.7282   23.7946 C   0  0  0  0  0  0  0  0  0  0  0  0
    4.5471   -8.6173   23.1202 F   0  0  0  0  0  0  0  0  0  0  0  0
    4.5266   -9.5705   25.0805 F   0  0  0  0  0  0  0  0  0  0  0  0
    2.9131  -13.7367   25.5488 C   0  0  0  0  0  0  0  0  0  0  0  0
    3.2265  -14.6104   26.5767 C   0  0  0  0  0  0  0  0  0  0  0  0
    2.0999  -14.6315   27.4105 C   0  0  0  0  0  0  0  0  0  0  0  0
    1.1304  -13.8309   26.9707 N   0  0  0  0  0  0  0  0  0  0  0  0
    1.6552  -13.2695   25.8579 N   0  0  0  0  0  0  0  0  0  0  0  0
    0.8831  -12.2813   25.1388 C   0  0  0  0  0  0  0  0  0  0  0  0
  2  1  1  1
  2  3  1  0
  3  4  1  0
  4  5  2  0
  4  6  1  0
  6  7  1  0
  6  8  1  0
  2  9  1  0
  9 10  2  0
 10 11  1  0
 11 12  2  0
 12 13  1  0
 13 14  1  0
 13  9  1  0
M  END
>  <inchikey>  (1335) 
MCJUJTRBGZXOBO-UHFFFAOYSA-N

>  <tags>  (1335) 
fragmenstein_placed,CpKRS_FrAncestor_bulkdock_iter2

>  <ref_pdb>  (1335) 
x0504a

>  <energy_score>  (1335) 
-11.971366

>  <distance_score>  (1335) 
0.583947

>  <HIPPO Pose ID>  (1335) 
59846

>  <ref_mols>  (1335) 
x0504b

>  <smiles>  (1335) 
C[C@H](NC(=O)C(F)F)c1ccnn1C

>  <HIPPO Compound ID>  (1335) 
386346

>  <alias>  (1335) 
MCJUJTRBGZXOBO-YFKPBYRVSA-N-P49

>  <subsites>  (1335) 


>  <placement_batch>  (1335) 
CpKRS_FrAncestor_bulkdock_iter2

>  <name>  (1335) 
MCJUJTRBGZXOBO-YFKPBYRVSA-N-P49

$$$$
ADTOVIWLISZUOQ-PKEIRNPWSA-N-P9
     RDKit          3D

 20 21  0  0  0  0  0  0  0  0999 V2000
    6.0621   -7.8101   24.3694 C   0  0  0  0  0  0  0  0  0  0  0  0
    4.9430   -8.1703   23.4117 C   0  0  1  0  0  0  0  0  0  0  0  0
    5.0933   -7.4119   22.2160 O   0  0  0  0  0  0  0  0  0  0  0  0
    4.8375   -9.6555   23.1643 C   0  0  0  0  0  0  0  0  0  0  0  0
    5.4289  -10.2717   22.0548 C   0  0  0  0  0  0  0  0  0  0  0  0
    5.3769  -11.6548   21.9162 C   0  0  0  0  0  0  0  0  0  0  0  0
    4.8232  -12.4431   22.9071 C   0  0  0  0  0  0  0  0  0  0  0  0
    4.2434  -11.8435   24.0132 C   0  0  0  0  0  0  0  0  0  0  0  0
    3.7164  -12.6551   24.9936 N   0  0  0  0  0  0  0  0  0  0  0  0
    4.0729  -14.1149   25.3953 C   0  0  0  0  0  0  0  0  0  0  0  0
    4.9190  -14.8217   25.0069 O   0  0  0  0  0  0  0  0  0  0  0  0
    3.0464  -14.6866   26.3946 C   0  0  2  0  0  0  0  0  0  0  0  0
    1.8895  -13.8126   26.8195 C   0  0  0  0  0  0  0  0  0  0  0  0
    0.9617  -14.6460   27.6519 C   0  0  0  0  0  0  0  0  0  0  0  0
    0.3248  -15.5219   26.8348 F   0  0  0  0  0  0  0  0  0  0  0  0
   -0.0199  -13.8348   28.1340 F   0  0  0  0  0  0  0  0  0  0  0  0
    1.6407  -15.3879   28.7827 C   0  0  0  0  0  0  0  0  0  0  0  0
    2.8641  -16.1179   28.2582 C   0  0  0  0  0  0  0  0  0  0  0  0
    3.6958  -15.1963   27.5609 O   0  0  0  0  0  0  0  0  0  0  0  0
    4.1892  -10.4585   24.1192 C   0  0  0  0  0  0  0  0  0  0  0  0
  2  1  1  1
  2  3  1  0
  2  4  1  0
  4  5  2  0
  5  6  1  0
  6  7  2  0
  7  8  1  0
  8  9  1  0
  9 10  1  0
 10 11  2  0
 12 10  1  1
 12 13  1  0
 13 14  1  0
 14 15  1  0
 14 16  1  0
 14 17  1  0
 17 18  1  0
 18 19  1  0
  8 20  2  0
 20  4  1  0
 19 12  1  0
M  END
>  <inchikey>  (1336) 
ADTOVIWLISZUOQ-UHFFFAOYSA-N

>  <tags>  (1336) 
fragmenstein_placed,CpKRS_FrAncestor_bulkdock_iter2

>  <ref_pdb>  (1336) 
x0504a

>  <energy_score>  (1336) 
-29.359814

>  <distance_score>  (1336) 
0.471257

>  <HIPPO Pose ID>  (1336) 
59876

>  <ref_mols>  (1336) 
x0419a

>  <smiles>  (1336) 
C[C@@H](O)c1cccc(NC(=O)C2CC(F)(F)CCO2)c1

>  <HIPPO Compound ID>  (1336) 
451894

>  <alias>  (1336) 
ADTOVIWLISZUOQ-PKEIRNPWSA-N-P9

>  <subsites>  (1336) 


>  <placement_batch>  (1336) 
CpKRS_FrAncestor_bulkdock_iter2

>  <name>  (1336) 
ADTOVIWLISZUOQ-PKEIRNPWSA-N-P9

$$$$
MTCYBQLOTJJBNT-JTQLQIEISA-N-P9
     RDKit          3D

 18 19  0  0  0  0  0  0  0  0999 V2000
    5.2669   -7.7019   24.6709 C   0  0  0  0  0  0  0  0  0  0  0  0
    5.4768   -8.3468   23.3076 C   0  0  2  0  0  0  0  0  0  0  0  0
    4.8469   -7.5622   22.3013 O   0  0  0  0  0  0  0  0  0  0  0  0
    5.0118   -9.7743   23.1530 C   0  0  0  0  0  0  0  0  0  0  0  0
    5.3246  -10.4395   21.9581 C   0  0  0  0  0  0  0  0  0  0  0  0
    5.1307  -11.8108   21.8407 C   0  0  0  0  0  0  0  0  0  0  0  0
    4.6620  -12.5433   22.9188 C   0  0  0  0  0  0  0  0  0  0  0  0
    4.2916  -11.8898   24.0873 C   0  0  0  0  0  0  0  0  0  0  0  0
    3.9132  -12.6443   25.1855 N   0  0  0  0  0  0  0  0  0  0  0  0
    4.2821  -14.0860   25.5838 C   0  0  0  0  0  0  0  0  0  0  0  0
    5.0216  -14.8384   25.0925 O   0  0  0  0  0  0  0  0  0  0  0  0
    3.4442  -14.5341   26.7291 C   0  0  0  0  0  0  0  0  0  0  0  0
    3.9638  -15.5026   27.5046 C   0  0  0  0  0  0  0  0  0  0  0  0
    3.1619  -16.2400   28.5208 C   0  0  0  0  0  0  0  0  0  0  0  0
    1.8655  -15.6682   28.7340 O   0  0  0  0  0  0  0  0  0  0  0  0
    1.2438  -15.3156   27.4963 C   0  0  0  0  0  0  0  0  0  0  0  0
    2.0015  -14.1705   26.8319 C   0  0  0  0  0  0  0  0  0  0  0  0
    4.3961  -10.5031   24.1819 C   0  0  0  0  0  0  0  0  0  0  0  0
  2  1  1  1
  2  3  1  0
  2  4  1  0
  4  5  2  0
  5  6  1  0
  6  7  2  0
  7  8  1  0
  8  9  1  0
  9 10  1  0
 10 11  2  0
 10 12  1  0
 12 13  2  0
 13 14  1  0
 14 15  1  0
 15 16  1  0
 16 17  1  0
  8 18  2  0
 18  4  1  0
 17 12  1  0
M  END
>  <inchikey>  (1337) 
MTCYBQLOTJJBNT-UHFFFAOYSA-N

>  <tags>  (1337) 
fragmenstein_placed,CpKRS_FrAncestor_bulkdock_iter2

>  <ref_pdb>  (1337) 
x0504a

>  <energy_score>  (1337) 
-25.352433

>  <distance_score>  (1337) 
0.3936

>  <HIPPO Pose ID>  (1337) 
59879

>  <ref_mols>  (1337) 
x0419a

>  <smiles>  (1337) 
C[C@H](O)c1cccc(NC(=O)C2=CCOCC2)c1

>  <HIPPO Compound ID>  (1337) 
352435

>  <alias>  (1337) 
MTCYBQLOTJJBNT-JTQLQIEISA-N-P9

>  <subsites>  (1337) 


>  <placement_batch>  (1337) 
CpKRS_FrAncestor_bulkdock_iter2

>  <name>  (1337) 
MTCYBQLOTJJBNT-JTQLQIEISA-N-P9

$$$$
QUKHZRKTTNENNL-RGURZIINSA-N-P7
     RDKit          3D

 13 13  0  0  0  0  0  0  0  0999 V2000
    4.3412   -8.9556   23.4479 C   0  0  0  0  0  0  0  0  0  0  0  0
    5.4445   -9.0225   24.4939 C   0  0  2  0  0  0  0  0  0  0  0  0
    6.5871   -8.3640   23.9325 O   0  0  0  0  0  0  0  0  0  0  0  0
    5.7641  -10.4917   24.8645 C   0  0  0  0  0  0  0  0  0  0  0  0
    4.6636  -11.1572   25.5669 N   0  0  0  0  0  0  0  0  0  0  0  0
    4.7771  -10.9299   27.0164 C   0  0  0  0  0  0  0  0  0  0  0  0
    3.4871  -11.3095   27.7348 C   0  0  0  0  0  0  0  0  0  0  0  0
    2.8451  -12.5522   27.2187 C   0  0  0  0  0  0  0  0  0  0  0  0
    3.2745  -13.1393   26.0947 C   0  0  0  0  0  0  0  0  0  0  0  0
    4.4265  -12.6058   25.2430 C   0  0  2  0  0  0  0  0  0  0  0  0
    5.6122  -13.5313   25.5806 C   0  0  0  0  0  0  0  0  0  0  0  0
    3.9861  -12.7980   23.7431 C   0  0  0  0  0  0  0  0  0  0  0  0
    5.0781  -12.8561   22.8260 O   0  0  0  0  0  0  0  0  0  0  0  0
  2  1  1  6
  2  3  1  0
  2  4  1  0
  4  5  1  0
  5  6  1  0
  6  7  1  0
  7  8  1  0
  8  9  2  0
  9 10  1  0
 10 11  1  6
 10 12  1  0
 12 13  1  0
 10  5  1  0
M  END
>  <inchikey>  (1338) 
QUKHZRKTTNENNL-UHFFFAOYSA-N

>  <tags>  (1338) 
fragmenstein_placed,CpKRS_FrAncestor_bulkdock_iter2

>  <ref_pdb>  (1338) 
x0504a

>  <energy_score>  (1338) 
-46.245417

>  <distance_score>  (1338) 
0.573019

>  <HIPPO Pose ID>  (1338) 
59888

>  <ref_mols>  (1338) 
x0414b

>  <smiles>  (1338) 
C[C@H](O)CN1CCC=CC1(C)CO

>  <HIPPO Compound ID>  (1338) 
275371

>  <alias>  (1338) 
QUKHZRKTTNENNL-RGURZIINSA-N-P7

>  <subsites>  (1338) 


>  <placement_batch>  (1338) 
CpKRS_FrAncestor_bulkdock_iter2

>  <name>  (1338) 
QUKHZRKTTNENNL-RGURZIINSA-N-P7

$$$$
GGSFOIGCDFLGBO-VUWPPUDQSA-N-P6
     RDKit          3D

 14 14  0  0  0  0  0  0  0  0999 V2000
    5.8406   -7.7692   23.7973 C   0  0  0  0  0  0  0  0  0  0  0  0
    5.0913   -9.0687   24.0525 C   0  0  2  0  0  0  0  0  0  0  0  0
    3.7213   -8.8762   23.6795 O   0  0  0  0  0  0  0  0  0  0  0  0
    5.2238   -9.4990   25.5357 C   0  0  0  0  0  0  0  0  0  0  0  0
    4.6381  -10.7855   25.9285 N   0  0  0  0  0  0  0  0  0  0  0  0
    5.0345  -11.9059   25.0974 C   0  0  0  0  0  0  0  0  0  0  0  0
    4.6042  -13.2443   25.6800 C   0  0  0  0  0  0  0  0  0  0  0  0
    3.1822  -13.2352   26.2227 C   0  0  0  0  0  0  0  0  0  0  0  0
    2.3565  -11.9860   25.8118 C   0  0  2  0  0  0  0  0  0  0  0  0
    1.0322  -12.0753   26.5977 C   0  0  0  0  0  0  0  0  0  0  0  0
    2.1002  -11.8683   24.3284 N   0  0  0  0  0  0  0  0  0  0  0  0
    1.7922  -13.1392   23.6639 C   0  0  0  0  0  0  0  0  0  0  0  0
    1.0382  -10.9068   23.9855 C   0  0  0  0  0  0  0  0  0  0  0  0
    3.2105  -10.7483   26.2975 C   0  0  0  0  0  0  0  0  0  0  0  0
  2  1  1  1
  2  3  1  0
  2  4  1  0
  4  5  1  0
  5  6  1  0
  6  7  1  0
  7  8  1  0
  8  9  1  0
  9 10  1  1
  9 11  1  0
 11 12  1  0
 11 13  1  0
  9 14  1  0
 14  5  1  0
M  END
>  <inchikey>  (1339) 
GGSFOIGCDFLGBO-UHFFFAOYSA-N

>  <tags>  (1339) 
fragmenstein_placed,CpKRS_FrAncestor_bulkdock_iter2

>  <ref_pdb>  (1339) 
x0504a

>  <energy_score>  (1339) 
-45.187792

>  <distance_score>  (1339) 
0.838712

>  <HIPPO Pose ID>  (1339) 
59891

>  <ref_mols>  (1339) 
x0414a

>  <smiles>  (1339) 
C[C@H](O)CN1CCCC(C)(N(C)C)C1

>  <HIPPO Compound ID>  (1339) 
387826

>  <alias>  (1339) 
GGSFOIGCDFLGBO-VUWPPUDQSA-N-P6

>  <subsites>  (1339) 


>  <placement_batch>  (1339) 
CpKRS_FrAncestor_bulkdock_iter2

>  <name>  (1339) 
GGSFOIGCDFLGBO-VUWPPUDQSA-N-P6

$$$$
XAKIZRLIXGLPBW-ZETCQYMHSA-N-P6
     RDKit          3D

 10 10  0  0  0  0  0  0  0  0999 V2000
    5.8393   -7.7468   23.5132 C   0  0  0  0  0  0  0  0  0  0  0  0
    4.9756   -8.9300   23.9233 C   0  0  2  0  0  0  0  0  0  0  0  0
    3.6309   -8.4553   24.0662 O   0  0  0  0  0  0  0  0  0  0  0  0
    5.5431   -9.5614   25.2166 C   0  0  0  0  0  0  0  0  0  0  0  0
    4.8925  -10.7479   25.7671 N   0  0  0  0  0  0  0  0  0  0  0  0
    4.4775  -11.7544   24.7863 C   0  0  0  0  0  0  0  0  0  0  0  0
    4.0005  -13.0685   25.4597 C   0  0  0  0  0  0  0  0  0  0  0  0
    3.6410  -12.9338   26.8707 N   0  0  0  0  0  0  0  0  0  0  0  0
    2.9542  -11.6685   27.1253 C   0  0  0  0  0  0  0  0  0  0  0  0
    3.7704  -10.4339   26.6710 C   0  0  0  0  0  0  0  0  0  0  0  0
  2  1  1  1
  2  3  1  0
  2  4  1  0
  4  5  1  0
  5  6  1  0
  6  7  1  0
  7  8  1  0
  8  9  1  0
  9 10  1  0
 10  5  1  0
M  END
>  <inchikey>  (1340) 
XAKIZRLIXGLPBW-UHFFFAOYSA-N

>  <tags>  (1340) 
fragmenstein_placed,CpKRS_FrAncestor_bulkdock_iter2

>  <ref_pdb>  (1340) 
x0504a

>  <energy_score>  (1340) 
-13.585319

>  <distance_score>  (1340) 
0.358686

>  <HIPPO Pose ID>  (1340) 
59893

>  <ref_mols>  (1340) 
x0414a

>  <smiles>  (1340) 
C[C@H](O)CN1CCNCC1

>  <HIPPO Compound ID>  (1340) 
160790

>  <alias>  (1340) 
XAKIZRLIXGLPBW-ZETCQYMHSA-N-P6

>  <subsites>  (1340) 


>  <placement_batch>  (1340) 
CpKRS_FrAncestor_bulkdock_iter2

>  <name>  (1340) 
XAKIZRLIXGLPBW-ZETCQYMHSA-N-P6

$$$$
PCAFNJDUSMKKHJ-QMMMGPOBSA-N-P6
     RDKit          3D

 11 11  0  0  0  0  0  0  0  0999 V2000
    5.8070   -7.7688   23.4993 C   0  0  0  0  0  0  0  0  0  0  0  0
    5.0151   -9.0009   23.9082 C   0  0  2  0  0  0  0  0  0  0  0  0
    3.6357   -8.6200   24.0102 O   0  0  0  0  0  0  0  0  0  0  0  0
    5.5959   -9.5815   25.2217 C   0  0  0  0  0  0  0  0  0  0  0  0
    4.9797  -10.7875   25.7717 N   0  0  0  0  0  0  0  0  0  0  0  0
    4.4485  -11.7520   24.8140 C   0  0  0  0  0  0  0  0  0  0  0  0
    3.9866  -13.0567   25.5013 C   0  0  0  0  0  0  0  0  0  0  0  0
    3.1203  -12.8778   26.6745 N   0  0  0  0  0  0  0  0  0  0  0  0
    1.8870  -13.6476   26.5673 C   0  0  0  0  0  0  0  0  0  0  0  0
    2.8416  -11.4673   26.9729 C   0  0  0  0  0  0  0  0  0  0  0  0
    4.0926  -10.5614   26.9212 C   0  0  0  0  0  0  0  0  0  0  0  0
  2  1  1  1
  2  3  1  0
  2  4  1  0
  4  5  1  0
  5  6  1  0
  6  7  1  0
  7  8  1  0
  8  9  1  0
  8 10  1  0
 10 11  1  0
 11  5  1  0
M  END
>  <inchikey>  (1341) 
PCAFNJDUSMKKHJ-UHFFFAOYSA-N

>  <tags>  (1341) 
fragmenstein_placed,CpKRS_FrAncestor_bulkdock_iter2

>  <ref_pdb>  (1341) 
x0504a

>  <energy_score>  (1341) 
-27.794856

>  <distance_score>  (1341) 
0.408741

>  <HIPPO Pose ID>  (1341) 
59899

>  <ref_mols>  (1341) 
x0414a

>  <smiles>  (1341) 
C[C@H](O)CN1CCN(C)CC1

>  <HIPPO Compound ID>  (1341) 
217387

>  <alias>  (1341) 
PCAFNJDUSMKKHJ-QMMMGPOBSA-N-P6

>  <subsites>  (1341) 


>  <placement_batch>  (1341) 
CpKRS_FrAncestor_bulkdock_iter2

>  <name>  (1341) 
PCAFNJDUSMKKHJ-QMMMGPOBSA-N-P6

$$$$
QRLMCNOYOYJUGX-JTQLQIEISA-N-P6
     RDKit          3D

 14 14  0  0  0  0  0  0  0  0999 V2000
    5.8253   -7.8494   23.4998 C   0  0  0  0  0  0  0  0  0  0  0  0
    4.9502   -8.9840   24.0174 C   0  0  2  0  0  0  0  0  0  0  0  0
    3.6172   -8.4702   24.1219 O   0  0  0  0  0  0  0  0  0  0  0  0
    5.5263   -9.5087   25.3591 C   0  0  0  0  0  0  0  0  0  0  0  0
    4.9510  -10.7088   25.9672 N   0  0  0  0  0  0  0  0  0  0  0  0
    3.6609  -10.4834   26.6364 C   0  0  0  0  0  0  0  0  0  0  0  0
    3.0197  -11.8152   27.0666 C   0  0  0  0  0  0  0  0  0  0  0  0
    2.6481  -12.6688   25.9197 N   0  0  0  0  0  0  0  0  0  0  0  0
    2.5600  -14.0696   26.3278 C   0  0  0  0  0  0  0  0  0  0  0  0
    1.9066  -14.9041   25.3095 C   0  0  0  0  0  0  0  0  0  0  0  0
    1.3830  -15.5909   24.4758 C   0  0  0  0  0  0  0  0  0  0  0  0
    0.5666  -16.6814   23.1412 Br  0  0  0  0  0  0  0  0  0  0  0  0
    3.5381  -12.4451   24.7688 C   0  0  0  0  0  0  0  0  0  0  0  0
    4.9397  -11.9013   25.1131 C   0  0  0  0  0  0  0  0  0  0  0  0
  2  1  1  1
  2  3  1  0
  2  4  1  0
  4  5  1  0
  5  6  1  0
  6  7  1  0
  7  8  1  0
  8  9  1  0
  9 10  1  0
 10 11  3  0
 11 12  1  0
  8 13  1  0
 13 14  1  0
 14  5  1  0
M  END
>  <inchikey>  (1342) 
QRLMCNOYOYJUGX-UHFFFAOYSA-N

>  <tags>  (1342) 
fragmenstein_placed,CpKRS_FrAncestor_bulkdock_iter2

>  <ref_pdb>  (1342) 
x0504a

>  <energy_score>  (1342) 
-26.622926

>  <distance_score>  (1342) 
0.709657

>  <HIPPO Pose ID>  (1342) 
59901

>  <ref_mols>  (1342) 
x0414a

>  <smiles>  (1342) 
C[C@H](O)CN1CCN(CC#CBr)CC1

>  <HIPPO Compound ID>  (1342) 
387214

>  <alias>  (1342) 
QRLMCNOYOYJUGX-JTQLQIEISA-N-P6

>  <subsites>  (1342) 


>  <placement_batch>  (1342) 
CpKRS_FrAncestor_bulkdock_iter2

>  <name>  (1342) 
QRLMCNOYOYJUGX-JTQLQIEISA-N-P6

$$$$
MGCHQGJKPBGMBZ-QMMMGPOBSA-N-P7
     RDKit          3D

 12 12  0  0  0  0  0  0  0  0999 V2000
    4.4655   -8.8420   23.1479 C   0  0  0  0  0  0  0  0  0  0  0  0
    5.3120   -8.6927   24.4074 C   0  0  2  0  0  0  0  0  0  0  0  0
    6.4641   -7.9111   24.0720 O   0  0  0  0  0  0  0  0  0  0  0  0
    5.7513  -10.0687   24.9377 C   0  0  0  0  0  0  0  0  0  0  0  0
    4.6345  -10.9452   25.3080 N   0  0  0  0  0  0  0  0  0  0  0  0
    4.2239  -10.7185   26.7136 C   0  0  0  0  0  0  0  0  0  0  0  0
    3.1413  -11.7134   27.1821 C   0  0  0  0  0  0  0  0  0  0  0  0
    3.5081  -13.1164   26.9588 N   0  0  0  0  0  0  0  0  0  0  0  0
    3.9153  -13.3692   25.5674 C   0  0  0  0  0  0  0  0  0  0  0  0
    4.4931  -14.7941   25.5005 C   0  0  0  0  0  0  0  0  0  0  0  0
    2.7120  -13.2947   24.6064 C   0  0  0  0  0  0  0  0  0  0  0  0
    5.0268  -12.3634   25.1513 C   0  0  0  0  0  0  0  0  0  0  0  0
  2  1  1  6
  2  3  1  0
  2  4  1  0
  4  5  1  0
  5  6  1  0
  6  7  1  0
  7  8  1  0
  8  9  1  0
  9 10  1  0
  9 11  1  0
  9 12  1  0
 12  5  1  0
M  END
>  <inchikey>  (1343) 
MGCHQGJKPBGMBZ-UHFFFAOYSA-N

>  <tags>  (1343) 
fragmenstein_placed,CpKRS_FrAncestor_bulkdock_iter2

>  <ref_pdb>  (1343) 
x0504a

>  <energy_score>  (1343) 
-38.576367

>  <distance_score>  (1343) 
0.444698

>  <HIPPO Pose ID>  (1343) 
59906

>  <ref_mols>  (1343) 
x0414b

>  <smiles>  (1343) 
C[C@H](O)CN1CCNC(C)(C)C1

>  <HIPPO Compound ID>  (1343) 
269968

>  <alias>  (1343) 
MGCHQGJKPBGMBZ-QMMMGPOBSA-N-P7

>  <subsites>  (1343) 


>  <placement_batch>  (1343) 
CpKRS_FrAncestor_bulkdock_iter2

>  <name>  (1343) 
MGCHQGJKPBGMBZ-QMMMGPOBSA-N-P7

$$$$
HMDZCMMVIPVAFY-SFYZADRCSA-N-P6
     RDKit          3D

 11 11  0  0  0  0  0  0  0  0999 V2000
    5.8367   -7.7920   23.5460 C   0  0  0  0  0  0  0  0  0  0  0  0
    5.0205   -9.0237   23.9068 C   0  0  2  0  0  0  0  0  0  0  0  0
    3.6429   -8.6250   23.9709 O   0  0  0  0  0  0  0  0  0  0  0  0
    5.5524   -9.6402   25.2276 C   0  0  0  0  0  0  0  0  0  0  0  0
    4.9010  -10.8492   25.7412 N   0  0  0  0  0  0  0  0  0  0  0  0
    3.9593  -10.5988   26.8423 C   0  0  0  0  0  0  0  0  0  0  0  0
    2.7996  -11.6150   26.9397 C   0  0  0  0  0  0  0  0  0  0  0  0
    3.2014  -13.0010   26.6659 N   0  0  0  0  0  0  0  0  0  0  0  0
    3.9022  -13.1205   25.3684 C   0  0  2  0  0  0  0  0  0  0  0  0
    5.0906  -14.0764   25.5330 C   0  0  0  0  0  0  0  0  0  0  0  0
    4.3656  -11.7736   24.7414 C   0  0  0  0  0  0  0  0  0  0  0  0
  2  1  1  1
  2  3  1  0
  2  4  1  0
  4  5  1  0
  5  6  1  0
  6  7  1  0
  7  8  1  0
  8  9  1  0
  9 10  1  1
  9 11  1  0
 11  5  1  0
M  END
>  <inchikey>  (1344) 
HMDZCMMVIPVAFY-UHFFFAOYSA-N

>  <tags>  (1344) 
fragmenstein_placed,CpKRS_FrAncestor_bulkdock_iter2

>  <ref_pdb>  (1344) 
x0504a

>  <energy_score>  (1344) 
-38.494582

>  <distance_score>  (1344) 
0.42919

>  <HIPPO Pose ID>  (1344) 
59907

>  <ref_mols>  (1344) 
x0414a

>  <smiles>  (1344) 
C[C@H](O)CN1CCN[C@H](C)C1

>  <HIPPO Compound ID>  (1344) 
36170

>  <alias>  (1344) 
HMDZCMMVIPVAFY-SFYZADRCSA-N-P6

>  <subsites>  (1344) 


>  <placement_batch>  (1344) 
CpKRS_FrAncestor_bulkdock_iter2

>  <name>  (1344) 
HMDZCMMVIPVAFY-SFYZADRCSA-N-P6

$$$$
SRKLNGPEGGSBFJ-QMMMGPOBSA-N-P6
     RDKit          3D

 12 12  0  0  0  0  0  0  0  0999 V2000
    5.8906   -7.6773   23.7936 C   0  0  0  0  0  0  0  0  0  0  0  0
    4.9867   -8.8953   23.7610 C   0  0  2  0  0  0  0  0  0  0  0  0
    3.6143   -8.4553   23.7868 O   0  0  0  0  0  0  0  0  0  0  0  0
    5.2576   -9.8386   24.9500 C   0  0  0  0  0  0  0  0  0  0  0  0
    4.0531  -10.6186   25.2885 N   0  0  0  0  0  0  0  0  0  0  0  0
    4.0062  -10.8416   26.7511 C   0  0  0  0  0  0  0  0  0  0  0  0
    2.7712  -11.5795   27.2579 C   0  0  0  0  0  0  0  0  0  0  0  0
    2.6805  -13.2912   26.6647 S   0  0  0  0  0  0  0  0  0  0  0  0
    3.7909  -13.1488   25.2341 C   0  0  0  0  0  0  0  0  0  0  0  0
    3.6864  -11.8054   24.4522 C   0  0  0  0  0  0  0  0  0  0  0  0
    4.5005  -12.0040   23.1512 C   0  0  0  0  0  0  0  0  0  0  0  0
    2.2283  -11.5791   23.9618 C   0  0  0  0  0  0  0  0  0  0  0  0
  2  1  1  1
  2  3  1  0
  2  4  1  0
  4  5  1  0
  5  6  1  0
  6  7  1  0
  7  8  1  0
  8  9  1  0
  9 10  1  0
 10 11  1  0
 10 12  1  0
 10  5  1  0
M  END
>  <inchikey>  (1345) 
SRKLNGPEGGSBFJ-UHFFFAOYSA-N

>  <tags>  (1345) 
fragmenstein_placed,CpKRS_FrAncestor_bulkdock_iter2

>  <ref_pdb>  (1345) 
x0504a

>  <energy_score>  (1345) 
-35.42282

>  <distance_score>  (1345) 
0.782218

>  <HIPPO Pose ID>  (1345) 
59913

>  <ref_mols>  (1345) 
x0414a

>  <smiles>  (1345) 
C[C@H](O)CN1CCSCC1(C)C

>  <HIPPO Compound ID>  (1345) 
269064

>  <alias>  (1345) 
SRKLNGPEGGSBFJ-QMMMGPOBSA-N-P6

>  <subsites>  (1345) 


>  <placement_batch>  (1345) 
CpKRS_FrAncestor_bulkdock_iter2

>  <name>  (1345) 
SRKLNGPEGGSBFJ-QMMMGPOBSA-N-P6

$$$$
VGBPPPOKMVPEGP-SFYZADRCSA-N-P6
     RDKit          3D

 11 11  0  0  0  0  0  0  0  0999 V2000
    5.9288   -7.7289   23.6523 C   0  0  0  0  0  0  0  0  0  0  0  0
    5.0605   -8.9559   23.8386 C   0  0  2  0  0  0  0  0  0  0  0  0
    3.6772   -8.5578   23.7433 O   0  0  0  0  0  0  0  0  0  0  0  0
    5.3089   -9.6239   25.2043 C   0  0  0  0  0  0  0  0  0  0  0  0
    4.2432  -10.6058   25.4677 N   0  0  0  0  0  0  0  0  0  0  0  0
    4.0132  -10.7755   26.9094 C   0  0  0  0  0  0  0  0  0  0  0  0
    2.7473  -11.5821   27.2027 C   0  0  0  0  0  0  0  0  0  0  0  0
    2.7901  -13.2838   26.5616 S   0  0  0  0  0  0  0  0  0  0  0  0
    4.3000  -13.1680   25.5605 C   0  0  0  0  0  0  0  0  0  0  0  0
    4.3865  -11.8766   24.7147 C   0  0  1  0  0  0  0  0  0  0  0  0
    3.3427  -11.9161   23.5846 C   0  0  0  0  0  0  0  0  0  0  0  0
  2  1  1  1
  2  3  1  0
  2  4  1  0
  4  5  1  0
  5  6  1  0
  6  7  1  0
  7  8  1  0
  8  9  1  0
  9 10  1  0
 10 11  1  6
 10  5  1  0
M  END
>  <inchikey>  (1346) 
VGBPPPOKMVPEGP-UHFFFAOYSA-N

>  <tags>  (1346) 
fragmenstein_placed,CpKRS_FrAncestor_bulkdock_iter2

>  <ref_pdb>  (1346) 
x0504a

>  <energy_score>  (1346) 
-40.620738

>  <distance_score>  (1346) 
0.628831

>  <HIPPO Pose ID>  (1346) 
59915

>  <ref_mols>  (1346) 
x0414a

>  <smiles>  (1346) 
C[C@H](O)CN1CCSC[C@H]1C

>  <HIPPO Compound ID>  (1346) 
36608

>  <alias>  (1346) 
VGBPPPOKMVPEGP-SFYZADRCSA-N-P6

>  <subsites>  (1346) 


>  <placement_batch>  (1346) 
CpKRS_FrAncestor_bulkdock_iter2

>  <name>  (1346) 
VGBPPPOKMVPEGP-SFYZADRCSA-N-P6

$$$$
GOLCZIHMGDHNCF-UHFFFAOYSA-N-P6
     RDKit          3D

 13 13  0  0  0  0  0  0  0  0999 V2000
    6.3050   -8.2019   23.6965 C   0  0  0  0  0  0  0  0  0  0  0  0
    5.3752   -9.0083   24.2281 C   0  0  0  0  0  0  0  0  0  0  0  0
    3.6067   -9.2901   23.1722 I   0  0  0  0  0  0  0  0  0  0  0  0
    5.5502   -9.6672   25.5836 C   0  0  0  0  0  0  0  0  0  0  0  0
    4.6038  -10.7401   25.8170 N   0  0  0  0  0  0  0  0  0  0  0  0
    4.0325  -10.7847   27.1574 C   0  0  0  0  0  0  0  0  0  0  0  0
    2.7958  -11.7052   27.1587 C   0  0  0  0  0  0  0  0  0  0  0  0
    3.1088  -13.0608   26.6655 N   0  0  0  0  0  0  0  0  0  0  0  0
    1.9319  -13.9423   26.6539 C   0  0  0  0  0  0  0  0  0  0  0  0
    0.8165  -13.6021   25.7454 C   0  0  0  0  0  0  0  0  0  0  0  0
   -0.1073  -13.3851   25.0758 N   0  0  0  0  0  0  0  0  0  0  0  0
    3.7955  -13.0218   25.3666 C   0  0  0  0  0  0  0  0  0  0  0  0
    5.0076  -12.0649   25.3604 C   0  0  0  0  0  0  0  0  0  0  0  0
  1  2  2  0
  2  3  1  0
  2  4  1  0
  4  5  1  0
  5  6  1  0
  6  7  1  0
  7  8  1  0
  8  9  1  0
  9 10  1  0
 10 11  3  0
  8 12  1  0
 12 13  1  0
 13  5  1  0
M  END
>  <inchikey>  (1347) 
GOLCZIHMGDHNCF-UHFFFAOYSA-N

>  <tags>  (1347) 
fragmenstein_placed,CpKRS_FrAncestor_bulkdock_iter2

>  <ref_pdb>  (1347) 
x0504a

>  <energy_score>  (1347) 
-34.822413

>  <distance_score>  (1347) 
0.572

>  <HIPPO Pose ID>  (1347) 
59945

>  <ref_mols>  (1347) 
x0414a

>  <smiles>  (1347) 
C=C(I)CN1CCN(CC#N)CC1

>  <HIPPO Compound ID>  (1347) 
274715

>  <alias>  (1347) 
GOLCZIHMGDHNCF-UHFFFAOYSA-N-P6

>  <subsites>  (1347) 


>  <placement_batch>  (1347) 
CpKRS_FrAncestor_bulkdock_iter2

>  <name>  (1347) 
GOLCZIHMGDHNCF-UHFFFAOYSA-N-P6

$$$$
VZYVRZBQNWTDKP-UHFFFAOYSA-N-P12
     RDKit          3D

 17 18  0  0  0  0  0  0  0  0999 V2000
   -1.3407  -13.4415   26.9144 C   0  0  0  0  0  0  0  0  0  0  0  0
   -0.4060  -13.3554   25.7371 C   0  0  0  0  0  0  0  0  0  0  0  0
    1.0114  -13.6478   25.8695 N   0  0  0  0  0  0  0  0  0  0  0  0
    1.7503  -14.1438   26.9251 C   0  0  0  0  0  0  0  0  0  0  0  0
    1.2609  -14.4667   28.2902 C   0  0  0  0  0  0  0  0  0  0  0  0
    3.0743  -14.1872   26.5187 C   0  0  0  0  0  0  0  0  0  0  0  0
    3.1708  -13.5518   25.2635 C   0  0  0  0  0  0  0  0  0  0  0  0
    4.3808  -13.1053   24.5789 C   0  0  0  0  0  0  0  0  0  0  0  0
    5.2783  -13.8141   24.3640 O   0  0  0  0  0  0  0  0  0  0  0  0
    4.1841  -11.6161   24.2461 N   0  0  0  0  0  0  0  0  0  0  0  0
    5.0815  -10.6692   23.6674 C   0  0  0  0  0  0  0  0  0  0  0  0
    4.8023   -9.2320   24.0841 C   0  0  0  0  0  0  0  0  0  0  0  0
    5.5805   -8.4364   23.0515 C   0  0  0  0  0  0  0  0  0  0  0  0
    5.4523   -9.2360   21.7581 C   0  0  0  0  0  0  0  0  0  0  0  0
    4.9489  -10.6213   22.1515 C   0  0  0  0  0  0  0  0  0  0  0  0
    1.8732  -13.3609   24.8155 C   0  0  0  0  0  0  0  0  0  0  0  0
    1.4044  -12.8822   23.4767 C   0  0  0  0  0  0  0  0  0  0  0  0
  1  2  1  0
  2  3  1  0
  3  4  1  0
  4  5  1  0
  4  6  2  0
  6  7  1  0
  7  8  1  0
  8  9  2  0
  8 10  1  0
 10 11  1  0
 11 12  1  0
 12 13  1  0
 13 14  1  0
 14 15  1  0
  7 16  2  0
 16 17  1  0
 16  3  1  0
 15 11  1  0
M  END
>  <inchikey>  (1348) 
VZYVRZBQNWTDKP-UHFFFAOYSA-N

>  <tags>  (1348) 
fragmenstein_placed,CpKRS_FrAncestor_bulkdock_iter2

>  <ref_pdb>  (1348) 
x0504a

>  <energy_score>  (1348) 
-2.742096

>  <distance_score>  (1348) 
0.604375

>  <HIPPO Pose ID>  (1348) 
60080

>  <ref_mols>  (1348) 
x0421b

>  <smiles>  (1348) 
CCn1c(C)cc(C(=O)NC2CCCC2)c1C

>  <HIPPO Compound ID>  (1348) 
451904

>  <alias>  (1348) 
VZYVRZBQNWTDKP-UHFFFAOYSA-N-P12

>  <subsites>  (1348) 


>  <placement_batch>  (1348) 
CpKRS_FrAncestor_bulkdock_iter2

>  <name>  (1348) 
VZYVRZBQNWTDKP-UHFFFAOYSA-N-P12

$$$$
OGBRSOQSWQECAZ-UHFFFAOYSA-N-P16
     RDKit          3D

 18 19  0  0  0  0  0  0  0  0999 V2000
    6.5705   -7.8387   24.6545 C   0  0  0  0  0  0  0  0  0  0  0  0
    5.2038   -7.8248   24.0193 C   0  0  0  0  0  0  0  0  0  0  0  0
    5.0186   -8.9099   23.0839 N   0  0  0  0  0  0  0  0  0  0  0  0
    5.2410   -8.8480   21.7452 C   0  0  0  0  0  0  0  0  0  0  0  0
    5.0154  -10.1155   21.2834 C   0  0  0  0  0  0  0  0  0  0  0  0
    4.6392  -10.8821   22.4107 C   0  0  0  0  0  0  0  0  0  0  0  0
    4.3889  -12.3596   22.3868 C   0  0  0  0  0  0  0  0  0  0  0  0
    3.8040  -12.8447   23.5949 N   0  0  0  0  0  0  0  0  0  0  0  0
    4.4569  -13.3391   24.8865 C   0  0  0  0  0  0  0  0  0  0  0  0
    5.5733  -13.3600   25.2056 O   0  0  0  0  0  0  0  0  0  0  0  0
    3.4310  -13.8192   25.8619 C   0  0  0  0  0  0  0  0  0  0  0  0
    2.2590  -13.0892   26.0942 C   0  0  0  0  0  0  0  0  0  0  0  0
    1.3643  -13.5091   27.0776 C   0  0  0  0  0  0  0  0  0  0  0  0
    1.6775  -14.6325   27.8194 C   0  0  0  0  0  0  0  0  0  0  0  0
    2.7710  -15.3811   27.6011 N   0  0  0  0  0  0  0  0  0  0  0  0
    3.6342  -14.9585   26.6338 C   0  0  0  0  0  0  0  0  0  0  0  0
    5.0966  -16.1122   26.3355 Br  0  0  0  0  0  0  0  0  0  0  0  0
    4.5346  -10.0964   23.4988 N   0  0  0  0  0  0  0  0  0  0  0  0
  1  2  1  0
  2  3  1  0
  3  4  1  0
  4  5  2  0
  5  6  1  0
  6  7  1  0
  7  8  1  0
  8  9  1  0
  9 10  2  0
  9 11  1  0
 11 12  2  0
 12 13  1  0
 13 14  2  0
 14 15  1  0
 15 16  2  0
 16 17  1  0
  6 18  2  0
 18  3  1  0
 16 11  1  0
M  END
>  <inchikey>  (1349) 
OGBRSOQSWQECAZ-UHFFFAOYSA-N

>  <tags>  (1349) 
fragmenstein_placed,CpKRS_FrAncestor_bulkdock_iter2

>  <ref_pdb>  (1349) 
x0504a

>  <energy_score>  (1349) 
-17.566857

>  <distance_score>  (1349) 
0.526552

>  <HIPPO Pose ID>  (1349) 
60083

>  <ref_mols>  (1349) 
x0426a

>  <smiles>  (1349) 
CCn1ccc(CNC(=O)c2cccnc2Br)n1

>  <HIPPO Compound ID>  (1349) 
214721

>  <alias>  (1349) 
OGBRSOQSWQECAZ-UHFFFAOYSA-N-P16

>  <subsites>  (1349) 


>  <placement_batch>  (1349) 
CpKRS_FrAncestor_bulkdock_iter2

>  <name>  (1349) 
OGBRSOQSWQECAZ-UHFFFAOYSA-N-P16

$$$$
LSKWRMRNHHYFGT-UHFFFAOYSA-N-P11
     RDKit          3D

 16 17  0  0  0  0  0  0  0  0999 V2000
   -0.8941  -12.8965   26.7513 C   0  0  0  0  0  0  0  0  0  0  0  0
   -0.2458  -14.1623   26.2228 C   0  0  0  0  0  0  0  0  0  0  0  0
    1.2015  -14.0840   26.1763 N   0  0  0  0  0  0  0  0  0  0  0  0
    2.0210  -14.8097   26.9968 C   0  0  0  0  0  0  0  0  0  0  0  0
    3.3165  -14.5538   26.6219 C   0  0  0  0  0  0  0  0  0  0  0  0
    3.2965  -13.5901   25.5701 C   0  0  0  0  0  0  0  0  0  0  0  0
    4.5015  -13.0320   24.9255 C   0  0  0  0  0  0  0  0  0  0  0  0
    5.4687  -13.6736   24.8494 O   0  0  0  0  0  0  0  0  0  0  0  0
    4.2262  -11.5903   24.4762 N   0  0  0  0  0  0  0  0  0  0  0  0
    5.0474  -10.6701   23.7580 C   0  0  0  0  0  0  0  0  0  0  0  0
    4.5770   -9.2283   23.8476 C   0  0  0  0  0  0  0  0  0  0  0  0
    5.3438   -8.5647   22.7161 C   0  0  0  0  0  0  0  0  0  0  0  0
    5.4188   -9.6171   21.6139 C   0  0  0  0  0  0  0  0  0  0  0  0
    5.0459  -10.9490   22.2589 C   0  0  0  0  0  0  0  0  0  0  0  0
    1.9506  -13.3706   25.2606 C   0  0  0  0  0  0  0  0  0  0  0  0
    1.3317  -12.6129   24.1321 C   0  0  0  0  0  0  0  0  0  0  0  0
  1  2  1  0
  2  3  1  0
  3  4  1  0
  4  5  2  0
  5  6  1  0
  6  7  1  0
  7  8  2  0
  7  9  1  0
  9 10  1  0
 10 11  1  0
 11 12  1  0
 12 13  1  0
 13 14  1  0
  6 15  2  0
 15 16  1  0
 15  3  1  0
 14 10  1  0
M  END
>  <inchikey>  (1350) 
LSKWRMRNHHYFGT-UHFFFAOYSA-N

>  <tags>  (1350) 
fragmenstein_placed,CpKRS_FrAncestor_bulkdock_iter2

>  <ref_pdb>  (1350) 
x0504a

>  <energy_score>  (1350) 
-18.651799

>  <distance_score>  (1350) 
0.586101

>  <HIPPO Pose ID>  (1350) 
60087

>  <ref_mols>  (1350) 
x0421a

>  <smiles>  (1350) 
CCn1ccc(C(=O)NC2CCCC2)c1C

>  <HIPPO Compound ID>  (1350) 
451905

>  <alias>  (1350) 
LSKWRMRNHHYFGT-UHFFFAOYSA-N-P11

>  <subsites>  (1350) 


>  <placement_batch>  (1350) 
CpKRS_FrAncestor_bulkdock_iter2

>  <name>  (1350) 
LSKWRMRNHHYFGT-UHFFFAOYSA-N-P11

$$$$
DZMRNJJYGCYMSC-UHFFFAOYSA-N-P12
     RDKit          3D

 17 18  0  0  0  0  0  0  0  0999 V2000
   -1.3280  -14.0937   25.6732 C   0  0  0  0  0  0  0  0  0  0  0  0
   -0.2447  -13.7307   26.6737 C   0  0  0  0  0  0  0  0  0  0  0  0
    1.1247  -13.8519   26.1976 N   0  0  0  0  0  0  0  0  0  0  0  0
    2.0944  -14.5616   26.8619 C   0  0  0  0  0  0  0  0  0  0  0  0
    3.3136  -14.2270   26.3204 C   0  0  0  0  0  0  0  0  0  0  0  0
    3.0818  -13.2647   25.3004 C   0  0  0  0  0  0  0  0  0  0  0  0
    4.0982  -12.5230   24.5400 C   0  0  0  0  0  0  0  0  0  0  0  0
    5.0590  -13.0452   24.1387 O   0  0  0  0  0  0  0  0  0  0  0  0
    3.5908  -11.0806   24.3476 N   0  0  0  0  0  0  0  0  0  0  0  0
    4.1077  -10.0121   23.5477 C   0  0  2  0  0  0  0  0  0  0  0  0
    4.6499  -10.4844   22.2028 C   0  0  0  0  0  0  0  0  0  0  0  0
    5.4410   -9.2968   21.6819 C   0  0  0  0  0  0  0  0  0  0  0  0
    5.7521   -8.4297   22.8940 C   0  0  0  0  0  0  0  0  0  0  0  0
    5.2779   -9.2133   24.1181 C   0  0  1  0  0  0  0  0  0  0  0  0
    4.9246   -8.2518   25.2403 C   0  0  0  0  0  0  0  0  0  0  0  0
    1.6966  -13.1965   25.1273 C   0  0  0  0  0  0  0  0  0  0  0  0
    0.8949  -12.5698   24.0361 C   0  0  0  0  0  0  0  0  0  0  0  0
  1  2  1  0
  2  3  1  0
  3  4  1  0
  4  5  2  0
  5  6  1  0
  6  7  1  0
  7  8  2  0
  7  9  1  0
 10  9  1  1
 10 11  1  0
 11 12  1  0
 12 13  1  0
 13 14  1  0
 14 15  1  1
  6 16  2  0
 16 17  1  0
 16  3  1  0
 14 10  1  0
M  END
>  <inchikey>  (1351) 
DZMRNJJYGCYMSC-UHFFFAOYSA-N

>  <tags>  (1351) 
fragmenstein_placed,CpKRS_FrAncestor_bulkdock_iter2

>  <ref_pdb>  (1351) 
x0504a

>  <energy_score>  (1351) 
-1.966505

>  <distance_score>  (1351) 
0.585616

>  <HIPPO Pose ID>  (1351) 
60092

>  <ref_mols>  (1351) 
x0421b

>  <smiles>  (1351) 
CCn1ccc(C(=O)NC2CCCC2C)c1C

>  <HIPPO Compound ID>  (1351) 
225075

>  <alias>  (1351) 
DZMRNJJYGCYMSC-UHFFFAOYSA-N-P12

>  <subsites>  (1351) 


>  <placement_batch>  (1351) 
CpKRS_FrAncestor_bulkdock_iter2

>  <name>  (1351) 
DZMRNJJYGCYMSC-UHFFFAOYSA-N-P12

$$$$
QDNVGDGDRWANNV-UHFFFAOYSA-N-P13
     RDKit          3D

 17 18  0  0  0  0  0  0  0  0999 V2000
   -1.4713  -14.1960   25.5606 C   0  0  0  0  0  0  0  0  0  0  0  0
   -0.3716  -13.3892   26.2157 C   0  0  0  0  0  0  0  0  0  0  0  0
    0.9682  -13.8548   25.9182 N   0  0  0  0  0  0  0  0  0  0  0  0
    1.7152  -14.6621   26.7345 C   0  0  0  0  0  0  0  0  0  0  0  0
    3.0178  -14.6206   26.2882 C   0  0  0  0  0  0  0  0  0  0  0  0
    3.0606  -13.7365   25.1750 C   0  0  0  0  0  0  0  0  0  0  0  0
    4.2597  -13.2236   24.5035 C   0  0  0  0  0  0  0  0  0  0  0  0
    5.1506  -13.9106   24.2090 O   0  0  0  0  0  0  0  0  0  0  0  0
    4.0707  -11.7093   24.3308 N   0  0  0  0  0  0  0  0  0  0  0  0
    4.9663  -10.7159   23.8508 C   0  0  1  0  0  0  0  0  0  0  0  0
    5.1831  -10.7251   22.3472 C   0  0  0  0  0  0  0  0  0  0  0  0
    5.6974   -9.3142   22.0433 C   0  0  0  0  0  0  0  0  0  0  0  0
    5.3304   -8.4406   23.2561 C   0  0  2  0  0  0  0  0  0  0  0  0
    6.5183   -8.0141   24.1106 C   0  0  0  0  0  0  0  0  0  0  0  0
    4.4109   -9.3187   24.0911 C   0  0  0  0  0  0  0  0  0  0  0  0
    1.7406  -13.4038   24.8738 C   0  0  0  0  0  0  0  0  0  0  0  0
    1.1748  -12.6587   23.7080 C   0  0  0  0  0  0  0  0  0  0  0  0
  1  2  1  0
  2  3  1  0
  3  4  1  0
  4  5  2  0
  5  6  1  0
  6  7  1  0
  7  8  2  0
  7  9  1  0
 10  9  1  6
 10 11  1  0
 11 12  1  0
 12 13  1  0
 13 14  1  1
 13 15  1  0
  6 16  2  0
 16 17  1  0
 16  3  1  0
 15 10  1  0
M  END
>  <inchikey>  (1352) 
QDNVGDGDRWANNV-UHFFFAOYSA-N

>  <tags>  (1352) 
fragmenstein_placed,CpKRS_FrAncestor_bulkdock_iter2

>  <ref_pdb>  (1352) 
x0504a

>  <energy_score>  (1352) 
-0.17784

>  <distance_score>  (1352) 
0.576339

>  <HIPPO Pose ID>  (1352) 
60097

>  <ref_mols>  (1352) 
x0421c

>  <smiles>  (1352) 
CCn1ccc(C(=O)NC2CCC(C)C2)c1C

>  <HIPPO Compound ID>  (1352) 
227620

>  <alias>  (1352) 
QDNVGDGDRWANNV-UHFFFAOYSA-N-P13

>  <subsites>  (1352) 


>  <placement_batch>  (1352) 
CpKRS_FrAncestor_bulkdock_iter2

>  <name>  (1352) 
QDNVGDGDRWANNV-UHFFFAOYSA-N-P13

$$$$
GOJVWJSSUKBDIF-UHFFFAOYSA-N-P12
     RDKit          3D

 18 19  0  0  0  0  0  0  0  0999 V2000
   -1.2663  -14.0378   25.3845 C   0  0  0  0  0  0  0  0  0  0  0  0
   -0.2975  -13.5831   26.4631 C   0  0  0  0  0  0  0  0  0  0  0  0
    1.1059  -13.8121   26.1552 N   0  0  0  0  0  0  0  0  0  0  0  0
    1.9288  -14.5842   26.9365 C   0  0  0  0  0  0  0  0  0  0  0  0
    3.2077  -14.4791   26.4481 C   0  0  0  0  0  0  0  0  0  0  0  0
    3.1755  -13.5797   25.3492 C   0  0  0  0  0  0  0  0  0  0  0  0
    4.3426  -13.0986   24.6055 C   0  0  0  0  0  0  0  0  0  0  0  0
    5.1666  -13.8326   24.2365 O   0  0  0  0  0  0  0  0  0  0  0  0
    4.2509  -11.5680   24.4978 N   0  0  0  0  0  0  0  0  0  0  0  0
    5.1045  -10.6291   23.8327 C   0  0  0  0  0  0  0  0  0  0  0  0
    5.1492   -9.2066   24.3853 C   0  0  2  0  0  0  0  0  0  0  0  0
    3.7849   -8.6444   24.7276 C   0  0  0  0  0  0  0  0  0  0  0  0
    5.7878   -8.4087   23.2431 C   0  0  0  0  0  0  0  0  0  0  0  0
    5.4967   -9.1832   21.9570 C   0  0  0  0  0  0  0  0  0  0  0  0
    4.7013  -10.4167   22.3815 C   0  0  1  0  0  0  0  0  0  0  0  0
    4.9816  -11.6355   21.5414 C   0  0  0  0  0  0  0  0  0  0  0  0
    1.8360  -13.2622   25.1198 C   0  0  0  0  0  0  0  0  0  0  0  0
    1.2091  -12.5178   23.9906 C   0  0  0  0  0  0  0  0  0  0  0  0
  1  2  1  0
  2  3  1  0
  3  4  1  0
  4  5  2  0
  5  6  1  0
  6  7  1  0
  7  8  2  0
  7  9  1  0
  9 10  1  0
 10 11  1  0
 11 12  1  6
 11 13  1  0
 13 14  1  0
 14 15  1  0
 15 16  1  6
  6 17  2  0
 17 18  1  0
 17  3  1  0
 15 10  1  0
M  END
>  <inchikey>  (1353) 
GOJVWJSSUKBDIF-UHFFFAOYSA-N

>  <tags>  (1353) 
fragmenstein_placed,CpKRS_FrAncestor_bulkdock_iter2

>  <ref_pdb>  (1353) 
x0504a

>  <energy_score>  (1353) 
-4.999865

>  <distance_score>  (1353) 
0.407275

>  <HIPPO Pose ID>  (1353) 
60100

>  <ref_mols>  (1353) 
x0421b

>  <smiles>  (1353) 
CCn1ccc(C(=O)NC2C(C)CCC2C)c1C

>  <HIPPO Compound ID>  (1353) 
343783

>  <alias>  (1353) 
GOJVWJSSUKBDIF-UHFFFAOYSA-N-P12

>  <subsites>  (1353) 


>  <placement_batch>  (1353) 
CpKRS_FrAncestor_bulkdock_iter2

>  <name>  (1353) 
GOJVWJSSUKBDIF-UHFFFAOYSA-N-P12

$$$$
HCBNQVDEQJJKPS-UHFFFAOYSA-N-P4
     RDKit          3D

 17 18  0  0  0  0  0  0  0  0999 V2000
   -0.9289  -15.2084   25.9969 C   0  0  0  0  0  0  0  0  0  0  0  0
    0.1629  -15.8307   26.8582 C   0  0  0  0  0  0  0  0  0  0  0  0
    1.4467  -15.1722   26.7565 N   0  0  0  0  0  0  0  0  0  0  0  0
    2.6465  -15.7596   27.0248 C   0  0  0  0  0  0  0  0  0  0  0  0
    3.5878  -14.9043   26.5137 C   0  0  0  0  0  0  0  0  0  0  0  0
    2.8492  -13.8078   26.0250 C   0  0  0  0  0  0  0  0  0  0  0  0
    3.3541  -12.7815   25.3075 N   0  0  0  0  0  0  0  0  0  0  0  0
    4.7963  -12.4912   24.8566 C   0  0  0  0  0  0  0  0  0  0  0  0
    5.7661  -13.1301   24.9665 O   0  0  0  0  0  0  0  0  0  0  0  0
    4.8667  -11.1738   24.0549 C   0  0  2  0  0  0  0  0  0  0  0  0
    4.1652   -9.8747   24.4548 C   0  0  0  0  0  0  0  0  0  0  0  0
    4.0038   -9.0761   23.1555 C   0  0  0  0  0  0  0  0  0  0  0  0
    4.5909   -9.9499   22.0586 C   0  0  0  0  0  0  0  0  0  0  0  0
    4.4358  -11.3755   22.6046 C   0  0  0  0  0  0  0  0  0  0  0  0
    3.0007  -11.8960   22.5051 C   0  0  0  0  0  0  0  0  0  0  0  0
    5.3475  -12.3341   21.8727 C   0  0  0  0  0  0  0  0  0  0  0  0
    1.5464  -13.9087   26.2920 N   0  0  0  0  0  0  0  0  0  0  0  0
  1  2  1  0
  2  3  1  0
  3  4  1  0
  4  5  2  0
  5  6  1  0
  6  7  1  0
  7  8  1  0
  8  9  2  0
 10  8  1  1
 10 11  1  0
 11 12  1  0
 12 13  1  0
 13 14  1  0
 14 15  1  0
 14 16  1  0
  6 17  2  0
 17  3  1  0
 14 10  1  0
M  END
>  <inchikey>  (1354) 
HCBNQVDEQJJKPS-UHFFFAOYSA-N

>  <tags>  (1354) 
fragmenstein_placed,CpKRS_FrAncestor_bulkdock_iter2

>  <ref_pdb>  (1354) 
x0504a

>  <energy_score>  (1354) 
-20.124036

>  <distance_score>  (1354) 
0.70406

>  <HIPPO Pose ID>  (1354) 
60123

>  <ref_mols>  (1354) 
x0407a

>  <smiles>  (1354) 
CCn1ccc(NC(=O)C2CCCC2(C)C)n1

>  <HIPPO Compound ID>  (1354) 
238043

>  <alias>  (1354) 
HCBNQVDEQJJKPS-UHFFFAOYSA-N-P4

>  <subsites>  (1354) 


>  <placement_batch>  (1354) 
CpKRS_FrAncestor_bulkdock_iter2

>  <name>  (1354) 
HCBNQVDEQJJKPS-UHFFFAOYSA-N-P4

$$$$
SCRMSJNORKBOBX-UHFFFAOYSA-N-P16
     RDKit          3D

 21 22  0  0  0  0  0  0  0  0999 V2000
    6.6258   -7.6939   24.6160 C   0  0  0  0  0  0  0  0  0  0  0  0
    5.2996   -7.8067   23.9079 C   0  0  0  0  0  0  0  0  0  0  0  0
    5.1854   -8.9998   23.0995 N   0  0  0  0  0  0  0  0  0  0  0  0
    5.0476  -10.2819   23.5445 C   0  0  0  0  0  0  0  0  0  0  0  0
    4.8712  -11.0759   22.4306 C   0  0  0  0  0  0  0  0  0  0  0  0
    4.6926  -12.5463   22.2985 C   0  0  0  0  0  0  0  0  0  0  0  0
    4.0886  -13.1202   23.4640 N   0  0  0  0  0  0  0  0  0  0  0  0
    4.7197  -13.6288   24.7651 C   0  0  0  0  0  0  0  0  0  0  0  0
    5.8233  -13.5936   25.1322 O   0  0  0  0  0  0  0  0  0  0  0  0
    3.6997  -14.1653   25.7397 C   0  0  0  0  0  0  0  0  0  0  0  0
    4.1761  -15.0445   26.7293 C   0  0  0  0  0  0  0  0  0  0  0  0
    3.3515  -15.4757   27.7712 C   0  0  0  0  0  0  0  0  0  0  0  0
    2.0370  -15.0281   27.8464 C   0  0  0  0  0  0  0  0  0  0  0  0
    1.5293  -14.1957   26.8508 C   0  0  0  0  0  0  0  0  0  0  0  0
    2.3570  -13.7572   25.8077 C   0  0  0  0  0  0  0  0  0  0  0  0
    1.7752  -12.9680   24.8470 O   0  0  0  0  0  0  0  0  0  0  0  0
    1.9075  -11.5988   25.1981 C   0  0  0  0  0  0  0  0  0  0  0  0
    0.9911  -11.2977   26.1540 F   0  0  0  0  0  0  0  0  0  0  0  0
    1.5729  -10.8573   24.1116 F   0  0  0  0  0  0  0  0  0  0  0  0
    4.9514  -10.1498   21.3659 C   0  0  0  0  0  0  0  0  0  0  0  0
    5.0924   -8.8862   21.7668 N   0  0  0  0  0  0  0  0  0  0  0  0
  1  2  1  0
  2  3  1  0
  3  4  1  0
  4  5  2  0
  5  6  1  0
  6  7  1  0
  7  8  1  0
  8  9  2  0
  8 10  1  0
 10 11  2  0
 11 12  1  0
 12 13  2  0
 13 14  1  0
 14 15  2  0
 15 16  1  0
 16 17  1  0
 17 18  1  0
 17 19  1  0
  5 20  1  0
 20 21  2  0
 21  3  1  0
 15 10  1  0
M  END
>  <inchikey>  (1355) 
SCRMSJNORKBOBX-UHFFFAOYSA-N

>  <tags>  (1355) 
fragmenstein_placed,CpKRS_FrAncestor_bulkdock_iter2

>  <ref_pdb>  (1355) 
x0504a

>  <energy_score>  (1355) 
-29.111191

>  <distance_score>  (1355) 
0.445928

>  <HIPPO Pose ID>  (1355) 
60126

>  <ref_mols>  (1355) 
x0426a

>  <smiles>  (1355) 
CCn1cc(CNC(=O)c2ccccc2OC(F)F)cn1

>  <HIPPO Compound ID>  (1355) 
160357

>  <alias>  (1355) 
SCRMSJNORKBOBX-UHFFFAOYSA-N-P16

>  <subsites>  (1355) 


>  <placement_batch>  (1355) 
CpKRS_FrAncestor_bulkdock_iter2

>  <name>  (1355) 
SCRMSJNORKBOBX-UHFFFAOYSA-N-P16

$$$$
PXVJWTCPDWKUHN-UHFFFAOYSA-N-P16
     RDKit          3D

 19 20  0  0  0  0  0  0  0  0999 V2000
    6.5496   -7.4466   24.5186 C   0  0  0  0  0  0  0  0  0  0  0  0
    5.1695   -7.9861   24.8272 C   0  0  0  0  0  0  0  0  0  0  0  0
    4.7554   -9.0106   23.8983 N   0  0  0  0  0  0  0  0  0  0  0  0
    4.5997  -10.3442   24.0984 C   0  0  0  0  0  0  0  0  0  0  0  0
    4.5572  -10.9498   22.8630 C   0  0  0  0  0  0  0  0  0  0  0  0
    4.5678  -12.4005   22.5124 C   0  0  0  0  0  0  0  0  0  0  0  0
    4.0417  -13.1606   23.6080 N   0  0  0  0  0  0  0  0  0  0  0  0
    4.7350  -13.7150   24.8630 C   0  0  0  0  0  0  0  0  0  0  0  0
    5.8584  -13.7090   25.1696 O   0  0  0  0  0  0  0  0  0  0  0  0
    3.7560  -14.2530   25.8671 C   0  0  0  0  0  0  0  0  0  0  0  0
    4.1982  -15.2435   26.7572 C   0  0  0  0  0  0  0  0  0  0  0  0
    3.3773  -15.6813   27.7986 C   0  0  0  0  0  0  0  0  0  0  0  0
    2.1057  -15.1350   27.9565 C   0  0  0  0  0  0  0  0  0  0  0  0
    1.6514  -14.1754   27.0553 C   0  0  0  0  0  0  0  0  0  0  0  0
    0.0517  -13.5546   27.1921 Cl  0  0  0  0  0  0  0  0  0  0  0  0
    2.4733  -13.7133   26.0284 C   0  0  0  0  0  0  0  0  0  0  0  0
    4.6626   -9.8417   22.0016 C   0  0  0  0  0  0  0  0  0  0  0  0
    5.0250   -9.8314   20.6023 C   0  0  0  0  0  0  0  0  0  0  0  0
    4.5659   -8.6652   22.6236 N   0  0  0  0  0  0  0  0  0  0  0  0
  1  2  1  0
  2  3  1  0
  3  4  1  0
  4  5  2  0
  5  6  1  0
  6  7  1  0
  7  8  1  0
  8  9  2  0
  8 10  1  0
 10 11  2  0
 11 12  1  0
 12 13  2  0
 13 14  1  0
 14 15  1  0
 14 16  2  0
  5 17  1  0
 17 18  1  0
 17 19  2  0
 19  3  1  0
 16 10  1  0
M  END
>  <inchikey>  (1356) 
PXVJWTCPDWKUHN-UHFFFAOYSA-N

>  <tags>  (1356) 
fragmenstein_placed,CpKRS_FrAncestor_bulkdock_iter2

>  <ref_pdb>  (1356) 
x0504a

>  <energy_score>  (1356) 
-0.751901

>  <distance_score>  (1356) 
0.75883

>  <HIPPO Pose ID>  (1356) 
60130

>  <ref_mols>  (1356) 
x0426a

>  <smiles>  (1356) 
CCn1cc(CNC(=O)c2cccc(Cl)c2)c(C)n1

>  <HIPPO Compound ID>  (1356) 
160416

>  <alias>  (1356) 
PXVJWTCPDWKUHN-UHFFFAOYSA-N-P16

>  <subsites>  (1356) 


>  <placement_batch>  (1356) 
CpKRS_FrAncestor_bulkdock_iter2

>  <name>  (1356) 
PXVJWTCPDWKUHN-UHFFFAOYSA-N-P16

$$$$
UOLFUBRAUWAGHD-UHFFFAOYSA-N-P15
     RDKit          3D

 20 21  0  0  0  0  0  0  0  0999 V2000
    3.4956  -24.6022   21.4272 C   0  0  0  0  0  0  0  0  0  0  0  0
    3.4350  -25.8547   20.5774 C   0  0  0  0  0  0  0  0  0  0  0  0
    3.2531  -25.5817   19.1641 N   0  0  0  0  0  0  0  0  0  0  0  0
    2.3811  -26.2163   18.3312 C   0  0  0  0  0  0  0  0  0  0  0  0
    2.6497  -25.7675   17.0522 C   0  0  0  0  0  0  0  0  0  0  0  0
    2.0640  -26.3042   15.8061 C   0  0  0  0  0  0  0  0  0  0  0  0
    1.8455  -25.3102   14.8089 N   0  0  0  0  0  0  0  0  0  0  0  0
    1.7291  -25.4375   13.2781 C   0  0  0  0  0  0  0  0  0  0  0  0
    1.8700  -26.3626   12.5847 O   0  0  0  0  0  0  0  0  0  0  0  0
    1.2693  -24.1549   12.6811 C   0  0  0  0  0  0  0  0  0  0  0  0
    0.1443  -23.5581   13.2660 C   0  0  0  0  0  0  0  0  0  0  0  0
   -0.3284  -22.3458   12.7901 C   0  0  0  0  0  0  0  0  0  0  0  0
   -1.7030  -21.6408   13.5492 Cl  0  0  0  0  0  0  0  0  0  0  0  0
    0.3174  -21.7120   11.7378 C   0  0  0  0  0  0  0  0  0  0  0  0
    1.3998  -22.3243   11.1167 C   0  0  0  0  0  0  0  0  0  0  0  0
    1.8553  -23.5687   11.5524 C   0  0  0  0  0  0  0  0  0  0  0  0
    2.9164  -24.1031   10.8791 O   0  0  0  0  0  0  0  0  0  0  0  0
    2.4962  -25.1633   10.0110 C   0  0  0  0  0  0  0  0  0  0  0  0
    3.6729  -24.8109   17.2436 C   0  0  0  0  0  0  0  0  0  0  0  0
    4.0823  -24.7408   18.5162 N   0  0  0  0  0  0  0  0  0  0  0  0
  1  2  1  0
  2  3  1  0
  3  4  1  0
  4  5  2  0
  5  6  1  0
  6  7  1  0
  7  8  1  0
  8  9  2  0
  8 10  1  0
 10 11  2  0
 11 12  1  0
 12 13  1  0
 12 14  2  0
 14 15  1  0
 15 16  2  0
 16 17  1  0
 17 18  1  0
  5 19  1  0
 19 20  2  0
 20  3  1  0
 16 10  1  0
M  END
>  <inchikey>  (1357) 
UOLFUBRAUWAGHD-UHFFFAOYSA-N

>  <tags>  (1357) 
fragmenstein_placed,CpKRS_FrAncestor_bulkdock_iter2

>  <ref_pdb>  (1357) 
x0504a

>  <energy_score>  (1357) 
-0.501992

>  <distance_score>  (1357) 
0.720182

>  <HIPPO Pose ID>  (1357) 
60133

>  <ref_mols>  (1357) 
x0426b

>  <smiles>  (1357) 
CCn1cc(CNC(=O)c2cc(Cl)ccc2OC)cn1

>  <HIPPO Compound ID>  (1357) 
160356

>  <alias>  (1357) 
UOLFUBRAUWAGHD-UHFFFAOYSA-N-P15

>  <subsites>  (1357) 


>  <placement_batch>  (1357) 
CpKRS_FrAncestor_bulkdock_iter2

>  <name>  (1357) 
UOLFUBRAUWAGHD-UHFFFAOYSA-N-P15

$$$$
WIXFTKUWVIDTBO-LBPRGKRZSA-N-P12
     RDKit          3D

 18 19  0  0  0  0  0  0  0  0999 V2000
   -1.0331  -13.8636   25.5016 C   0  0  0  0  0  0  0  0  0  0  0  0
   -0.1106  -13.7100   26.6984 C   0  0  0  0  0  0  0  0  0  0  0  0
    1.2871  -13.8967   26.3624 N   0  0  0  0  0  0  0  0  0  0  0  0
    2.0228  -13.1308   25.5081 C   0  0  0  0  0  0  0  0  0  0  0  0
    3.3109  -13.6353   25.5267 C   0  0  0  0  0  0  0  0  0  0  0  0
    4.4934  -13.1573   24.7986 C   0  0  0  0  0  0  0  0  0  0  0  0
    5.3868  -13.8786   24.6041 O   0  0  0  0  0  0  0  0  0  0  0  0
    4.2925  -11.6855   24.3927 N   0  0  0  0  0  0  0  0  0  0  0  0
    5.1052  -10.8222   23.5827 C   0  0  1  0  0  0  0  0  0  0  0  0
    4.7434  -10.9829   22.1006 C   0  0  0  0  0  0  0  0  0  0  0  0
    4.7274   -9.5794   21.5136 C   0  0  0  0  0  0  0  0  0  0  0  0
    5.4337   -8.7070   22.5256 C   0  0  0  0  0  0  0  0  0  0  0  0
    5.0245   -9.3061   23.8794 C   0  0  0  0  0  0  0  0  0  0  0  0
    6.0102   -8.8077   24.9362 C   0  0  0  0  0  0  0  0  0  0  0  0
    3.6184   -8.8731   24.2992 C   0  0  0  0  0  0  0  0  0  0  0  0
    3.2215  -14.7499   26.4116 C   0  0  0  0  0  0  0  0  0  0  0  0
    4.3030  -15.6866   26.8111 C   0  0  0  0  0  0  0  0  0  0  0  0
    1.9850  -14.9020   26.9096 N   0  0  0  0  0  0  0  0  0  0  0  0
  1  2  1  0
  2  3  1  0
  3  4  1  0
  4  5  2  0
  5  6  1  0
  6  7  2  0
  6  8  1  0
  9  8  1  1
  9 10  1  0
 10 11  1  0
 11 12  1  0
 12 13  1  0
 13 14  1  0
 13 15  1  0
  5 16  1  0
 16 17  1  0
 16 18  2  0
 18  3  1  0
 13  9  1  0
M  END
>  <inchikey>  (1358) 
WIXFTKUWVIDTBO-UHFFFAOYSA-N

>  <tags>  (1358) 
fragmenstein_placed,CpKRS_FrAncestor_bulkdock_iter2

>  <ref_pdb>  (1358) 
x0504a

>  <energy_score>  (1358) 
-24.37979

>  <distance_score>  (1358) 
0.308593

>  <HIPPO Pose ID>  (1358) 
60171

>  <ref_mols>  (1358) 
x0421b

>  <smiles>  (1358) 
CCn1cc(C(=O)N[C@H]2CCCC2(C)C)c(C)n1

>  <HIPPO Compound ID>  (1358) 
340293

>  <alias>  (1358) 
WIXFTKUWVIDTBO-LBPRGKRZSA-N-P12

>  <subsites>  (1358) 


>  <placement_batch>  (1358) 
CpKRS_FrAncestor_bulkdock_iter2

>  <name>  (1358) 
WIXFTKUWVIDTBO-LBPRGKRZSA-N-P12

$$$$
RATQFZLERGGTNC-SKDRFNHKSA-N-P13
     RDKit          3D

 17 18  0  0  0  0  0  0  0  0999 V2000
   -0.8785  -14.3418   24.9361 C   0  0  0  0  0  0  0  0  0  0  0  0
   -0.1074  -14.0700   26.2162 C   0  0  0  0  0  0  0  0  0  0  0  0
    1.3260  -14.1385   26.0362 N   0  0  0  0  0  0  0  0  0  0  0  0
    2.0806  -13.3129   25.2640 C   0  0  0  0  0  0  0  0  0  0  0  0
    3.3912  -13.7376   25.3987 C   0  0  0  0  0  0  0  0  0  0  0  0
    4.6012  -13.1755   24.7867 C   0  0  0  0  0  0  0  0  0  0  0  0
    5.5689  -13.8170   24.7033 O   0  0  0  0  0  0  0  0  0  0  0  0
    4.3404  -11.7107   24.4000 N   0  0  0  0  0  0  0  0  0  0  0  0
    5.1826  -10.7587   23.7454 C   0  0  1  0  0  0  0  0  0  0  0  0
    4.9482  -10.6937   22.2435 C   0  0  0  0  0  0  0  0  0  0  0  0
    5.4242   -9.3035   21.8312 C   0  0  0  0  0  0  0  0  0  0  0  0
    5.6584   -8.5140   23.1189 C   0  0  0  0  0  0  0  0  0  0  0  0
    4.9909   -9.3195   24.2322 C   0  0  1  0  0  0  0  0  0  0  0  0
    3.5343   -8.9093   24.4293 C   0  0  0  0  0  0  0  0  0  0  0  0
    3.2973  -14.8517   26.2839 C   0  0  0  0  0  0  0  0  0  0  0  0
    4.3940  -15.7188   26.7856 C   0  0  0  0  0  0  0  0  0  0  0  0
    2.0340  -15.0730   26.6798 N   0  0  0  0  0  0  0  0  0  0  0  0
  1  2  1  0
  2  3  1  0
  3  4  1  0
  4  5  2  0
  5  6  1  0
  6  7  2  0
  6  8  1  0
  9  8  1  1
  9 10  1  0
 10 11  1  0
 11 12  1  0
 12 13  1  0
 13 14  1  6
  5 15  1  0
 15 16  1  0
 15 17  2  0
 17  3  1  0
 13  9  1  0
M  END
>  <inchikey>  (1359) 
RATQFZLERGGTNC-UHFFFAOYSA-N

>  <tags>  (1359) 
fragmenstein_placed,CpKRS_FrAncestor_bulkdock_iter2

>  <ref_pdb>  (1359) 
x0504a

>  <energy_score>  (1359) 
-9.393655

>  <distance_score>  (1359) 
0.285169

>  <HIPPO Pose ID>  (1359) 
60180

>  <ref_mols>  (1359) 
x0421c

>  <smiles>  (1359) 
CCn1cc(C(=O)N[C@H]2CCC[C@H]2C)c(C)n1

>  <HIPPO Compound ID>  (1359) 
225069

>  <alias>  (1359) 
RATQFZLERGGTNC-SKDRFNHKSA-N-P13

>  <subsites>  (1359) 


>  <placement_batch>  (1359) 
CpKRS_FrAncestor_bulkdock_iter2

>  <name>  (1359) 
RATQFZLERGGTNC-SKDRFNHKSA-N-P13

$$$$
OARXGFURMSEXJR-UHFFFAOYSA-N-P46
     RDKit          3D

 18 19  0  0  0  0  0  0  0  0999 V2000
   -0.7542  -13.1981   26.3243 C   0  0  0  0  0  0  0  0  0  0  0  0
    0.3323  -13.3600   27.3792 C   0  0  0  0  0  0  0  0  0  0  0  0
    1.6029  -13.7410   26.8350 N   0  0  0  0  0  0  0  0  0  0  0  0
    2.2622  -12.9623   25.9609 C   0  0  0  0  0  0  0  0  0  0  0  0
    3.4526  -13.5986   25.6954 C   0  0  0  0  0  0  0  0  0  0  0  0
    4.4183  -13.0547   24.7577 C   0  0  0  0  0  0  0  0  0  0  0  0
    5.5695  -13.1177   24.9272 O   0  0  0  0  0  0  0  0  0  0  0  0
    3.6071  -12.3471   23.6505 N   0  0  0  0  0  0  0  0  0  0  0  0
    4.0351  -11.4998   22.5870 C   0  0  2  0  0  0  0  0  0  0  0  0
    5.3333  -11.9489   21.9826 C   0  0  0  0  0  0  0  0  0  0  0  0
    4.0583  -10.0238   22.9998 C   0  0  1  0  0  0  0  0  0  0  0  0
    4.9871   -9.6855   24.1582 C   0  0  0  0  0  0  0  0  0  0  0  0
    5.4657   -8.3073   23.8034 C   0  0  0  0  0  0  0  0  0  0  0  0
    5.5351   -8.3754   22.2967 C   0  0  0  0  0  0  0  0  0  0  0  0
    4.4417   -9.1989   21.8826 O   0  0  0  0  0  0  0  0  0  0  0  0
    3.4527  -14.7064   26.5861 C   0  0  0  0  0  0  0  0  0  0  0  0
    4.5135  -15.7138   26.8053 C   0  0  0  0  0  0  0  0  0  0  0  0
    2.3010  -14.7845   27.2872 N   0  0  0  0  0  0  0  0  0  0  0  0
  1  2  1  0
  2  3  1  0
  3  4  1  0
  4  5  2  0
  5  6  1  0
  6  7  2  0
  6  8  1  0
  8  9  1  0
  9 10  1  1
  9 11  1  0
 11 12  1  1
 12 13  1  0
 13 14  1  0
 14 15  1  0
  5 16  1  0
 16 17  1  0
 16 18  2  0
 18  3  1  0
 15 11  1  0
M  END
>  <inchikey>  (1360) 
OARXGFURMSEXJR-UHFFFAOYSA-N

>  <tags>  (1360) 
fragmenstein_placed,CpKRS_FrAncestor_bulkdock_iter2

>  <ref_pdb>  (1360) 
x0504a

>  <energy_score>  (1360) 
-19.85543

>  <distance_score>  (1360) 
0.540493

>  <HIPPO Pose ID>  (1360) 
60184

>  <ref_mols>  (1360) 
x0502c

>  <smiles>  (1360) 
CCn1cc(C(=O)NC(C)C2CCCO2)c(C)n1

>  <HIPPO Compound ID>  (1360) 
160308

>  <alias>  (1360) 
OARXGFURMSEXJR-UHFFFAOYSA-N-P46

>  <subsites>  (1360) 


>  <placement_batch>  (1360) 
CpKRS_FrAncestor_bulkdock_iter2

>  <name>  (1360) 
OARXGFURMSEXJR-UHFFFAOYSA-N-P46

$$$$
LULPCPFOMAXXSZ-UHFFFAOYSA-N-P49
     RDKit          3D

 18 18  0  0  0  0  0  0  0  0999 V2000
   -0.8124  -14.6881   25.9617 C   0  0  0  0  0  0  0  0  0  0  0  0
    0.1507  -14.3464   27.0884 C   0  0  0  0  0  0  0  0  0  0  0  0
    1.5050  -14.2191   26.6228 N   0  0  0  0  0  0  0  0  0  0  0  0
    1.9534  -13.2485   25.7931 C   0  0  0  0  0  0  0  0  0  0  0  0
    3.2836  -13.5335   25.5509 C   0  0  0  0  0  0  0  0  0  0  0  0
    4.2111  -12.7907   24.6983 C   0  0  0  0  0  0  0  0  0  0  0  0
    5.2225  -13.2695   24.3804 O   0  0  0  0  0  0  0  0  0  0  0  0
    3.5974  -11.4263   24.3391 N   0  0  0  0  0  0  0  0  0  0  0  0
    4.0624  -10.3893   23.4251 C   0  0  0  0  0  0  0  0  0  0  0  0
    4.6888  -11.0301   22.1799 C   0  0  0  0  0  0  0  0  0  0  0  0
    2.8360   -9.5703   23.0102 C   0  0  0  0  0  0  0  0  0  0  0  0
    5.0689   -9.4317   24.0840 C   0  0  0  0  0  0  0  0  0  0  0  0
    6.1223  -10.0706   24.6169 F   0  0  0  0  0  0  0  0  0  0  0  0
    5.5318   -8.5274   23.1889 F   0  0  0  0  0  0  0  0  0  0  0  0
    4.4882   -8.7290   25.0878 F   0  0  0  0  0  0  0  0  0  0  0  0
    3.5183  -14.7270   26.2994 C   0  0  0  0  0  0  0  0  0  0  0  0
    4.7633  -15.5233   26.4160 C   0  0  0  0  0  0  0  0  0  0  0  0
    2.4189  -15.1303   26.9513 N   0  0  0  0  0  0  0  0  0  0  0  0
  1  2  1  0
  2  3  1  0
  3  4  1  0
  4  5  2  0
  5  6  1  0
  6  7  2  0
  6  8  1  0
  8  9  1  0
  9 10  1  0
  9 11  1  0
  9 12  1  0
 12 13  1  0
 12 14  1  0
 12 15  1  0
  5 16  1  0
 16 17  1  0
 16 18  2  0
 18  3  1  0
M  END
>  <inchikey>  (1361) 
LULPCPFOMAXXSZ-UHFFFAOYSA-N

>  <tags>  (1361) 
fragmenstein_placed,CpKRS_FrAncestor_bulkdock_iter2

>  <ref_pdb>  (1361) 
x0504a

>  <energy_score>  (1361) 
-15.789939

>  <distance_score>  (1361) 
0.711632

>  <HIPPO Pose ID>  (1361) 
60186

>  <ref_mols>  (1361) 
x0504b

>  <smiles>  (1361) 
CCn1cc(C(=O)NC(C)(C)C(F)(F)F)c(C)n1

>  <HIPPO Compound ID>  (1361) 
350629

>  <alias>  (1361) 
LULPCPFOMAXXSZ-UHFFFAOYSA-N-P49

>  <subsites>  (1361) 


>  <placement_batch>  (1361) 
CpKRS_FrAncestor_bulkdock_iter2

>  <name>  (1361) 
LULPCPFOMAXXSZ-UHFFFAOYSA-N-P49

$$$$
VFSKBTKOABVFKS-UHFFFAOYSA-N-P48
     RDKit          3D

 17 17  0  0  0  0  0  0  0  0999 V2000
   -1.0890  -14.3617   26.1479 C   0  0  0  0  0  0  0  0  0  0  0  0
   -0.0965  -14.1650   27.2803 C   0  0  0  0  0  0  0  0  0  0  0  0
    1.2751  -14.1717   26.8194 N   0  0  0  0  0  0  0  0  0  0  0  0
    1.8789  -13.2074   26.0638 C   0  0  0  0  0  0  0  0  0  0  0  0
    3.1639  -13.6535   25.8148 C   0  0  0  0  0  0  0  0  0  0  0  0
    4.2598  -13.0396   25.0634 C   0  0  0  0  0  0  0  0  0  0  0  0
    5.3017  -13.5588   25.0678 O   0  0  0  0  0  0  0  0  0  0  0  0
    3.7908  -11.7502   24.3652 N   0  0  0  0  0  0  0  0  0  0  0  0
    4.4919  -10.8641   23.4325 C   0  0  0  0  0  0  0  0  0  0  0  0
    4.8700  -11.6853   22.1928 C   0  0  0  0  0  0  0  0  0  0  0  0
    5.7241  -10.2843   24.1223 C   0  0  0  0  0  0  0  0  0  0  0  0
    3.6814   -9.6505   22.9872 C   0  0  0  0  0  0  0  0  0  0  0  0
    3.5217   -8.7542   23.9908 F   0  0  0  0  0  0  0  0  0  0  0  0
    4.2836   -8.9868   21.9729 F   0  0  0  0  0  0  0  0  0  0  0  0
    2.4319   -9.9659   22.5846 F   0  0  0  0  0  0  0  0  0  0  0  0
    3.2223  -14.8924   26.5025 C   0  0  0  0  0  0  0  0  0  0  0  0
    2.0703  -15.2164   27.0944 N   0  0  0  0  0  0  0  0  0  0  0  0
  1  2  1  0
  2  3  1  0
  3  4  1  0
  4  5  2  0
  5  6  1  0
  6  7  2  0
  6  8  1  0
  8  9  1  0
  9 10  1  0
  9 11  1  0
  9 12  1  0
 12 13  1  0
 12 14  1  0
 12 15  1  0
  5 16  1  0
 16 17  2  0
 17  3  1  0
M  END
>  <inchikey>  (1362) 
VFSKBTKOABVFKS-UHFFFAOYSA-N

>  <tags>  (1362) 
fragmenstein_placed,CpKRS_FrAncestor_bulkdock_iter2

>  <ref_pdb>  (1362) 
x0504a

>  <energy_score>  (1362) 
-6.948933

>  <distance_score>  (1362) 
0.765944

>  <HIPPO Pose ID>  (1362) 
60188

>  <ref_mols>  (1362) 
x0504a

>  <smiles>  (1362) 
CCn1cc(C(=O)NC(C)(C)C(F)(F)F)cn1

>  <HIPPO Compound ID>  (1362) 
167052

>  <alias>  (1362) 
VFSKBTKOABVFKS-UHFFFAOYSA-N-P48

>  <subsites>  (1362) 


>  <placement_batch>  (1362) 
CpKRS_FrAncestor_bulkdock_iter2

>  <name>  (1362) 
VFSKBTKOABVFKS-UHFFFAOYSA-N-P48

$$$$
PMPZBCWCMCQFEM-UHFFFAOYSA-N-P48
     RDKit          3D

 16 16  0  0  0  0  0  0  0  0999 V2000
   -1.0276  -14.3454   26.0496 C   0  0  0  0  0  0  0  0  0  0  0  0
   -0.0419  -14.0561   27.1679 C   0  0  0  0  0  0  0  0  0  0  0  0
    1.3338  -14.1134   26.7200 N   0  0  0  0  0  0  0  0  0  0  0  0
    1.9539  -13.2365   25.8789 C   0  0  0  0  0  0  0  0  0  0  0  0
    3.2315  -13.7281   25.6704 C   0  0  0  0  0  0  0  0  0  0  0  0
    4.3073  -13.1780   24.8379 C   0  0  0  0  0  0  0  0  0  0  0  0
    5.4148  -13.4381   25.0802 O   0  0  0  0  0  0  0  0  0  0  0  0
    3.7108  -12.3065   23.7236 N   0  0  0  0  0  0  0  0  0  0  0  0
    4.3483  -11.6418   22.6061 C   0  0  0  0  0  0  0  0  0  0  0  0
    4.4026  -10.1215   22.7180 C   0  0  0  0  0  0  0  0  0  0  0  0
    5.0047   -9.6996   23.8499 F   0  0  0  0  0  0  0  0  0  0  0  0
    5.0716   -9.5831   21.6736 F   0  0  0  0  0  0  0  0  0  0  0  0
    3.1559   -9.5756   22.7073 F   0  0  0  0  0  0  0  0  0  0  0  0
    3.2851  -14.8875   26.4975 C   0  0  0  0  0  0  0  0  0  0  0  0
    4.4296  -15.8040   26.7143 C   0  0  0  0  0  0  0  0  0  0  0  0
    2.1130  -15.1358   27.0953 N   0  0  0  0  0  0  0  0  0  0  0  0
  1  2  1  0
  2  3  1  0
  3  4  1  0
  4  5  2  0
  5  6  1  0
  6  7  2  0
  6  8  1  0
  8  9  1  0
  9 10  1  0
 10 11  1  0
 10 12  1  0
 10 13  1  0
  5 14  1  0
 14 15  1  0
 14 16  2  0
 16  3  1  0
M  END
>  <inchikey>  (1363) 
PMPZBCWCMCQFEM-UHFFFAOYSA-N

>  <tags>  (1363) 
fragmenstein_placed,CpKRS_FrAncestor_bulkdock_iter2

>  <ref_pdb>  (1363) 
x0504a

>  <energy_score>  (1363) 
-10.415406

>  <distance_score>  (1363) 
0.431978

>  <HIPPO Pose ID>  (1363) 
60197

>  <ref_mols>  (1363) 
x0504a

>  <smiles>  (1363) 
CCn1cc(C(=O)NCC(F)(F)F)c(C)n1

>  <HIPPO Compound ID>  (1363) 
451912

>  <alias>  (1363) 
PMPZBCWCMCQFEM-UHFFFAOYSA-N-P48

>  <subsites>  (1363) 


>  <placement_batch>  (1363) 
CpKRS_FrAncestor_bulkdock_iter2

>  <name>  (1363) 
PMPZBCWCMCQFEM-UHFFFAOYSA-N-P48

$$$$
BPFVMMXGVKKYIM-GXSJLCMTSA-N-P12
     RDKit          3D

 17 18  0  0  0  0  0  0  0  0999 V2000
   -1.1431  -12.7279   26.3240 C   0  0  0  0  0  0  0  0  0  0  0  0
   -0.4104  -14.0506   26.4376 C   0  0  0  0  0  0  0  0  0  0  0  0
    1.0316  -14.0138   26.3081 N   0  0  0  0  0  0  0  0  0  0  0  0
    1.7669  -13.2821   25.4258 C   0  0  0  0  0  0  0  0  0  0  0  0
    3.0702  -13.7315   25.5341 C   0  0  0  0  0  0  0  0  0  0  0  0
    4.2414  -13.2646   24.8027 C   0  0  0  0  0  0  0  0  0  0  0  0
    5.0992  -14.0003   24.5262 O   0  0  0  0  0  0  0  0  0  0  0  0
    4.1082  -11.7541   24.5591 N   0  0  0  0  0  0  0  0  0  0  0  0
    5.0340  -10.8201   24.0135 C   0  0  2  0  0  0  0  0  0  0  0  0
    4.7877   -9.3705   24.4027 C   0  0  0  0  0  0  0  0  0  0  0  0
    5.7301   -8.6395   23.4660 C   0  0  0  0  0  0  0  0  0  0  0  0
    5.6432   -9.4350   22.1596 C   0  0  2  0  0  0  0  0  0  0  0  0
    4.8063   -8.6936   21.1573 C   0  0  0  0  0  0  0  0  0  0  0  0
    5.0148  -10.7893   22.4976 C   0  0  0  0  0  0  0  0  0  0  0  0
    3.0063  -14.7677   26.5018 C   0  0  0  0  0  0  0  0  0  0  0  0
    4.1128  -15.6292   26.9945 C   0  0  0  0  0  0  0  0  0  0  0  0
    1.7633  -14.9225   26.9777 N   0  0  0  0  0  0  0  0  0  0  0  0
  1  2  1  0
  2  3  1  0
  3  4  1  0
  4  5  2  0
  5  6  1  0
  6  7  2  0
  6  8  1  0
  9  8  1  1
  9 10  1  0
 10 11  1  0
 11 12  1  0
 12 13  1  6
 12 14  1  0
  5 15  1  0
 15 16  1  0
 15 17  2  0
 17  3  1  0
 14  9  1  0
M  END
>  <inchikey>  (1364) 
BPFVMMXGVKKYIM-UHFFFAOYSA-N

>  <tags>  (1364) 
fragmenstein_placed,CpKRS_FrAncestor_bulkdock_iter2

>  <ref_pdb>  (1364) 
x0504a

>  <energy_score>  (1364) 
-17.910944

>  <distance_score>  (1364) 
0.473148

>  <HIPPO Pose ID>  (1364) 
60201

>  <ref_mols>  (1364) 
x0421b

>  <smiles>  (1364) 
CCn1cc(C(=O)N[C@@H]2CC[C@H](C)C2)c(C)n1

>  <HIPPO Compound ID>  (1364) 
227611

>  <alias>  (1364) 
BPFVMMXGVKKYIM-GXSJLCMTSA-N-P12

>  <subsites>  (1364) 


>  <placement_batch>  (1364) 
CpKRS_FrAncestor_bulkdock_iter2

>  <name>  (1364) 
BPFVMMXGVKKYIM-GXSJLCMTSA-N-P12

$$$$
OONLQJFQYFCZMK-UWVGGRQHSA-N-P13
     RDKit          3D

 17 18  0  0  0  0  0  0  0  0999 V2000
   -0.9705  -14.3592   25.0529 C   0  0  0  0  0  0  0  0  0  0  0  0
   -0.1543  -14.1638   26.3195 C   0  0  0  0  0  0  0  0  0  0  0  0
    1.2722  -14.2056   26.0941 N   0  0  0  0  0  0  0  0  0  0  0  0
    1.9799  -13.3842   25.2771 C   0  0  0  0  0  0  0  0  0  0  0  0
    3.3050  -13.7656   25.3924 C   0  0  0  0  0  0  0  0  0  0  0  0
    4.4737  -13.1806   24.7319 C   0  0  0  0  0  0  0  0  0  0  0  0
    5.4504  -13.7995   24.6008 O   0  0  0  0  0  0  0  0  0  0  0  0
    4.1502  -11.7328   24.3296 N   0  0  0  0  0  0  0  0  0  0  0  0
    4.9816  -10.7196   23.7719 C   0  0  1  0  0  0  0  0  0  0  0  0
    5.2522  -10.8967   22.2870 C   0  0  0  0  0  0  0  0  0  0  0  0
    5.6491   -9.4977   21.8127 C   0  0  0  0  0  0  0  0  0  0  0  0
    5.1979   -8.5267   22.9083 C   0  0  2  0  0  0  0  0  0  0  0  0
    6.5508   -7.8781   23.8608 Cl  0  0  0  0  0  0  0  0  0  0  0  0
    4.3176   -9.3515   23.8275 C   0  0  0  0  0  0  0  0  0  0  0  0
    3.2692  -14.8563   26.3084 C   0  0  0  0  0  0  0  0  0  0  0  0
    4.4018  -15.6839   26.7976 C   0  0  0  0  0  0  0  0  0  0  0  0
    2.0247  -15.0928   26.7517 N   0  0  0  0  0  0  0  0  0  0  0  0
  1  2  1  0
  2  3  1  0
  3  4  1  0
  4  5  2  0
  5  6  1  0
  6  7  2  0
  6  8  1  0
  9  8  1  6
  9 10  1  0
 10 11  1  0
 11 12  1  0
 12 13  1  1
 12 14  1  0
  5 15  1  0
 15 16  1  0
 15 17  2  0
 17  3  1  0
 14  9  1  0
M  END
>  <inchikey>  (1365) 
OONLQJFQYFCZMK-UHFFFAOYSA-N

>  <tags>  (1365) 
fragmenstein_placed,CpKRS_FrAncestor_bulkdock_iter2

>  <ref_pdb>  (1365) 
x0504a

>  <energy_score>  (1365) 
-9.22267

>  <distance_score>  (1365) 
0.326693

>  <HIPPO Pose ID>  (1365) 
60206

>  <ref_mols>  (1365) 
x0421c

>  <smiles>  (1365) 
CCn1cc(C(=O)N[C@H]2CC[C@H](Cl)C2)c(C)n1

>  <HIPPO Compound ID>  (1365) 
451913

>  <alias>  (1365) 
OONLQJFQYFCZMK-UWVGGRQHSA-N-P13

>  <subsites>  (1365) 


>  <placement_batch>  (1365) 
CpKRS_FrAncestor_bulkdock_iter2

>  <name>  (1365) 
OONLQJFQYFCZMK-UWVGGRQHSA-N-P13

$$$$
FYPLTUHWQOJLQS-SSDOTTSWSA-N-P48
     RDKit          3D

 17 17  0  0  0  0  0  0  0  0999 V2000
   -1.0180  -14.4233   26.3544 C   0  0  0  0  0  0  0  0  0  0  0  0
   -0.0041  -14.2292   27.4703 C   0  0  0  0  0  0  0  0  0  0  0  0
    1.3515  -14.1708   26.9685 N   0  0  0  0  0  0  0  0  0  0  0  0
    1.8665  -13.2025   26.1624 C   0  0  0  0  0  0  0  0  0  0  0  0
    3.1418  -13.6139   25.8194 C   0  0  0  0  0  0  0  0  0  0  0  0
    4.0989  -12.9557   24.9270 C   0  0  0  0  0  0  0  0  0  0  0  0
    5.2420  -13.1356   25.0504 O   0  0  0  0  0  0  0  0  0  0  0  0
    3.3279  -12.1185   23.8934 N   0  0  0  0  0  0  0  0  0  0  0  0
    3.7975  -11.3961   22.7267 C   0  0  2  0  0  0  0  0  0  0  0  0
    4.9338  -12.1355   22.0496 C   0  0  0  0  0  0  0  0  0  0  0  0
    4.1892   -9.9353   22.9701 C   0  0  0  0  0  0  0  0  0  0  0  0
    3.0856   -9.1847   23.2521 F   0  0  0  0  0  0  0  0  0  0  0  0
    4.7418   -9.3837   21.8632 F   0  0  0  0  0  0  0  0  0  0  0  0
    5.0548   -9.7684   23.9872 F   0  0  0  0  0  0  0  0  0  0  0  0
    3.3138  -14.8254   26.5484 C   0  0  0  0  0  0  0  0  0  0  0  0
    4.5060  -15.7055   26.5895 C   0  0  0  0  0  0  0  0  0  0  0  0
    2.2077  -15.1677   27.2230 N   0  0  0  0  0  0  0  0  0  0  0  0
  1  2  1  0
  2  3  1  0
  3  4  1  0
  4  5  2  0
  5  6  1  0
  6  7  2  0
  6  8  1  0
  8  9  1  0
  9 10  1  1
  9 11  1  0
 11 12  1  0
 11 13  1  0
 11 14  1  0
  5 15  1  0
 15 16  1  0
 15 17  2  0
 17  3  1  0
M  END
>  <inchikey>  (1366) 
FYPLTUHWQOJLQS-UHFFFAOYSA-N

>  <tags>  (1366) 
fragmenstein_placed,CpKRS_FrAncestor_bulkdock_iter2

>  <ref_pdb>  (1366) 
x0504a

>  <energy_score>  (1366) 
-11.144223

>  <distance_score>  (1366) 
0.436977

>  <HIPPO Pose ID>  (1366) 
60208

>  <ref_mols>  (1366) 
x0504a

>  <smiles>  (1366) 
CCn1cc(C(=O)N[C@H](C)C(F)(F)F)c(C)n1

>  <HIPPO Compound ID>  (1366) 
237656

>  <alias>  (1366) 
FYPLTUHWQOJLQS-SSDOTTSWSA-N-P48

>  <subsites>  (1366) 


>  <placement_batch>  (1366) 
CpKRS_FrAncestor_bulkdock_iter2

>  <name>  (1366) 
FYPLTUHWQOJLQS-SSDOTTSWSA-N-P48

$$$$
XKEGZOLRRGTUCE-ZCFIWIBFSA-N-P49
     RDKit          3D

 16 16  0  0  0  0  0  0  0  0999 V2000
    1.3079  -15.3085   29.3258 C   0  0  0  0  0  0  0  0  0  0  0  0
    0.9292  -14.6417   28.0128 C   0  0  0  0  0  0  0  0  0  0  0  0
    2.0165  -14.5121   27.0720 N   0  0  0  0  0  0  0  0  0  0  0  0
    2.2307  -13.4711   26.2123 C   0  0  0  0  0  0  0  0  0  0  0  0
    3.4390  -13.7397   25.5930 C   0  0  0  0  0  0  0  0  0  0  0  0
    4.2463  -12.9214   24.6948 C   0  0  0  0  0  0  0  0  0  0  0  0
    5.3864  -13.1353   24.6268 O   0  0  0  0  0  0  0  0  0  0  0  0
    3.3882  -11.8684   23.9824 N   0  0  0  0  0  0  0  0  0  0  0  0
    3.7712  -10.7776   23.0938 C   0  0  2  0  0  0  0  0  0  0  0  0
    4.7809  -11.2680   22.0638 C   0  0  0  0  0  0  0  0  0  0  0  0
    4.3215   -9.5455   23.8260 C   0  0  0  0  0  0  0  0  0  0  0  0
    4.8403   -8.6489   22.9519 F   0  0  0  0  0  0  0  0  0  0  0  0
    5.2718   -9.8323   24.7336 F   0  0  0  0  0  0  0  0  0  0  0  0
    3.3149   -8.9039   24.4707 F   0  0  0  0  0  0  0  0  0  0  0  0
    3.8073  -15.0076   26.1034 C   0  0  0  0  0  0  0  0  0  0  0  0
    2.9048  -15.5043   26.9480 N   0  0  0  0  0  0  0  0  0  0  0  0
  1  2  1  0
  2  3  1  0
  3  4  1  0
  4  5  2  0
  5  6  1  0
  6  7  2  0
  6  8  1  0
  8  9  1  0
  9 10  1  6
  9 11  1  0
 11 12  1  0
 11 13  1  0
 11 14  1  0
  5 15  1  0
 15 16  2  0
 16  3  1  0
M  END
>  <inchikey>  (1367) 
XKEGZOLRRGTUCE-UHFFFAOYSA-N

>  <tags>  (1367) 
fragmenstein_placed,CpKRS_FrAncestor_bulkdock_iter2

>  <ref_pdb>  (1367) 
x0504a

>  <energy_score>  (1367) 
-1.226281

>  <distance_score>  (1367) 
0.633408

>  <HIPPO Pose ID>  (1367) 
60215

>  <ref_mols>  (1367) 
x0504b

>  <smiles>  (1367) 
CCn1cc(C(=O)N[C@H](C)C(F)(F)F)cn1

>  <HIPPO Compound ID>  (1367) 
451911

>  <alias>  (1367) 
XKEGZOLRRGTUCE-ZCFIWIBFSA-N-P49

>  <subsites>  (1367) 


>  <placement_batch>  (1367) 
CpKRS_FrAncestor_bulkdock_iter2

>  <name>  (1367) 
XKEGZOLRRGTUCE-ZCFIWIBFSA-N-P49

$$$$
VWZHWSRDNHKHRT-UHFFFAOYSA-N-P55
     RDKit          3D

 19 20  0  0  0  0  0  0  0  0999 V2000
    4.9258   -8.9331   20.9046 C   0  0  0  0  0  0  0  0  0  0  0  0
    5.9172   -9.7550   21.6773 C   0  0  0  0  0  0  0  0  0  0  0  0
    5.5452   -9.6622   23.0621 N   0  0  0  0  0  0  0  0  0  0  0  0
    5.6920   -8.5350   23.8172 C   0  0  0  0  0  0  0  0  0  0  0  0
    4.6655   -8.6021   24.7209 C   0  0  0  0  0  0  0  0  0  0  0  0
    3.9377   -9.7552   24.5470 N   0  0  0  0  0  0  0  0  0  0  0  0
    4.5805  -10.4552   23.6273 C   0  0  0  0  0  0  0  0  0  0  0  0
    4.3007  -11.8308   23.1195 C   0  0  0  0  0  0  0  0  0  0  0  0
    3.8713  -12.6376   24.1943 N   0  0  0  0  0  0  0  0  0  0  0  0
    4.6168  -13.7131   24.9928 C   0  0  0  0  0  0  0  0  0  0  0  0
    5.7291  -14.0544   24.9443 O   0  0  0  0  0  0  0  0  0  0  0  0
    3.6245  -14.2895   25.9091 C   0  0  0  0  0  0  0  0  0  0  0  0
    3.7529  -15.3109   26.8765 C   0  0  0  0  0  0  0  0  0  0  0  0
    2.4909  -15.4535   27.4116 C   0  0  0  0  0  0  0  0  0  0  0  0
    1.6951  -14.5793   26.7319 N   0  0  0  0  0  0  0  0  0  0  0  0
    0.2666  -14.3281   26.8702 C   0  0  0  0  0  0  0  0  0  0  0  0
    0.0205  -12.8654   27.1817 C   0  0  0  0  0  0  0  0  0  0  0  0
   -0.4953  -14.6712   25.5962 C   0  0  0  0  0  0  0  0  0  0  0  0
    2.3647  -13.8139   25.8713 N   0  0  0  0  0  0  0  0  0  0  0  0
  1  2  1  0
  2  3  1  0
  3  4  1  0
  4  5  2  0
  5  6  1  0
  6  7  2  0
  7  8  1  0
  8  9  1  0
  9 10  1  0
 10 11  2  0
 10 12  1  0
 12 13  1  0
 13 14  2  0
 14 15  1  0
 15 16  1  0
 16 17  1  0
 16 18  1  0
 15 19  1  0
  7  3  1  0
 19 12  2  0
M  END
>  <inchikey>  (1368) 
VWZHWSRDNHKHRT-UHFFFAOYSA-N

>  <tags>  (1368) 
fragmenstein_placed,CpKRS_FrAncestor_bulkdock_iter2

>  <ref_pdb>  (1368) 
x0504a

>  <energy_score>  (1368) 
-10.692591

>  <distance_score>  (1368) 
0.941986

>  <HIPPO Pose ID>  (1368) 
60221

>  <ref_mols>  (1368) 
x0646a

>  <smiles>  (1368) 
CCn1ccnc1CNC(=O)c1ccn(C(C)C)n1

>  <HIPPO Compound ID>  (1368) 
219768

>  <alias>  (1368) 
VWZHWSRDNHKHRT-UHFFFAOYSA-N-P55

>  <subsites>  (1368) 


>  <placement_batch>  (1368) 
CpKRS_FrAncestor_bulkdock_iter2

>  <name>  (1368) 
VWZHWSRDNHKHRT-UHFFFAOYSA-N-P55

$$$$
UDJMFLKEIBHODP-UHFFFAOYSA-N-P12
     RDKit          3D

 15 16  0  0  0  0  0  0  0  0999 V2000
    4.5059  -16.8086   25.5870 C   0  0  0  0  0  0  0  0  0  0  0  0
    4.3731  -15.7140   26.6328 C   0  0  0  0  0  0  0  0  0  0  0  0
    3.3141  -14.7782   26.3104 N   0  0  0  0  0  0  0  0  0  0  0  0
    2.0524  -14.8112   26.8405 C   0  0  0  0  0  0  0  0  0  0  0  0
    1.3947  -13.7431   26.2832 C   0  0  0  0  0  0  0  0  0  0  0  0
    2.2201  -13.0598   25.4299 N   0  0  0  0  0  0  0  0  0  0  0  0
    3.3956  -13.6752   25.4940 C   0  0  0  0  0  0  0  0  0  0  0  0
    4.5851  -13.1473   24.8239 C   0  0  0  0  0  0  0  0  0  0  0  0
    5.5855  -13.7426   24.7536 O   0  0  0  0  0  0  0  0  0  0  0  0
    4.2411  -11.7178   24.3692 N   0  0  0  0  0  0  0  0  0  0  0  0
    5.0198  -10.7598   23.6532 C   0  0  0  0  0  0  0  0  0  0  0  0
    4.7420   -9.3165   24.0457 C   0  0  0  0  0  0  0  0  0  0  0  0
    5.4415   -8.5442   22.9390 C   0  0  0  0  0  0  0  0  0  0  0  0
    5.2751   -9.4019   21.6858 C   0  0  0  0  0  0  0  0  0  0  0  0
    4.7680  -10.7648   22.1545 C   0  0  0  0  0  0  0  0  0  0  0  0
  1  2  1  0
  2  3  1  0
  3  4  1  0
  4  5  2  0
  5  6  1  0
  6  7  2  0
  7  8  1  0
  8  9  2  0
  8 10  1  0
 10 11  1  0
 11 12  1  0
 12 13  1  0
 13 14  1  0
 14 15  1  0
  7  3  1  0
 15 11  1  0
M  END
>  <inchikey>  (1369) 
UDJMFLKEIBHODP-UHFFFAOYSA-N

>  <tags>  (1369) 
fragmenstein_placed,CpKRS_FrAncestor_bulkdock_iter2

>  <ref_pdb>  (1369) 
x0504a

>  <energy_score>  (1369) 
-0.10879

>  <distance_score>  (1369) 
0.342489

>  <HIPPO Pose ID>  (1369) 
60231

>  <ref_mols>  (1369) 
x0421b

>  <smiles>  (1369) 
CCn1ccnc1C(=O)NC1CCCC1

>  <HIPPO Compound ID>  (1369) 
451915

>  <alias>  (1369) 
UDJMFLKEIBHODP-UHFFFAOYSA-N-P12

>  <subsites>  (1369) 


>  <placement_batch>  (1369) 
CpKRS_FrAncestor_bulkdock_iter2

>  <name>  (1369) 
UDJMFLKEIBHODP-UHFFFAOYSA-N-P12

$$$$
GOUHGFTYUPQPGY-UHFFFAOYSA-N-P13
     RDKit          3D

 17 18  0  0  0  0  0  0  0  0999 V2000
    4.2101  -17.1094   25.6310 C   0  0  0  0  0  0  0  0  0  0  0  0
    4.1470  -16.0616   26.7325 C   0  0  0  0  0  0  0  0  0  0  0  0
    3.0871  -15.0984   26.5047 N   0  0  0  0  0  0  0  0  0  0  0  0
    1.8793  -15.0828   27.1466 C   0  0  0  0  0  0  0  0  0  0  0  0
    1.1937  -14.0254   26.6032 C   0  0  0  0  0  0  0  0  0  0  0  0
    1.9692  -13.3626   25.6891 N   0  0  0  0  0  0  0  0  0  0  0  0
    3.1286  -14.0131   25.6652 C   0  0  0  0  0  0  0  0  0  0  0  0
    4.2947  -13.5482   24.9160 C   0  0  0  0  0  0  0  0  0  0  0  0
    5.2646  -14.1839   24.8182 O   0  0  0  0  0  0  0  0  0  0  0  0
    3.9885  -12.1254   24.4414 N   0  0  0  0  0  0  0  0  0  0  0  0
    4.8248  -11.1584   23.8383 C   0  0  1  0  0  0  0  0  0  0  0  0
    5.1534  -11.3853   22.3756 C   0  0  0  0  0  0  0  0  0  0  0  0
    5.7265  -10.0392   21.9305 C   0  0  0  0  0  0  0  0  0  0  0  0
    5.4252   -9.0306   23.0591 C   0  0  0  0  0  0  0  0  0  0  0  0
    5.0239   -7.7285   22.4183 C   0  0  0  0  0  0  0  0  0  0  0  0
    6.5894   -8.7258   24.0142 C   0  0  0  0  0  0  0  0  0  0  0  0
    4.3183   -9.7244   23.8631 C   0  0  0  0  0  0  0  0  0  0  0  0
  1  2  1  0
  2  3  1  0
  3  4  1  0
  4  5  2  0
  5  6  1  0
  6  7  2  0
  7  8  1  0
  8  9  2  0
  8 10  1  0
 11 10  1  6
 11 12  1  0
 12 13  1  0
 13 14  1  0
 14 15  1  0
 14 16  1  0
 14 17  1  0
  7  3  1  0
 17 11  1  0
M  END
>  <inchikey>  (1370) 
GOUHGFTYUPQPGY-UHFFFAOYSA-N

>  <tags>  (1370) 
fragmenstein_placed,CpKRS_FrAncestor_bulkdock_iter2

>  <ref_pdb>  (1370) 
x0504a

>  <energy_score>  (1370) 
-9.690008

>  <distance_score>  (1370) 
0.541197

>  <HIPPO Pose ID>  (1370) 
60240

>  <ref_mols>  (1370) 
x0421c

>  <smiles>  (1370) 
CCn1ccnc1C(=O)NC1CCC(C)(C)C1

>  <HIPPO Compound ID>  (1370) 
165471

>  <alias>  (1370) 
GOUHGFTYUPQPGY-UHFFFAOYSA-N-P13

>  <subsites>  (1370) 


>  <placement_batch>  (1370) 
CpKRS_FrAncestor_bulkdock_iter2

>  <name>  (1370) 
GOUHGFTYUPQPGY-UHFFFAOYSA-N-P13

$$$$
NEABPGCERXPXAC-JTQLQIEISA-N-P13
     RDKit          3D

 17 18  0  0  0  0  0  0  0  0999 V2000
    5.6267  -15.6490   26.6114 C   0  0  0  0  0  0  0  0  0  0  0  0
    4.3340  -16.0035   25.9106 C   0  0  0  0  0  0  0  0  0  0  0  0
    3.3312  -14.9637   25.9916 N   0  0  0  0  0  0  0  0  0  0  0  0
    2.1857  -15.0211   26.7368 C   0  0  0  0  0  0  0  0  0  0  0  0
    1.5300  -13.8437   26.4765 C   0  0  0  0  0  0  0  0  0  0  0  0
    2.2544  -13.0627   25.6131 N   0  0  0  0  0  0  0  0  0  0  0  0
    3.3509  -13.7577   25.3294 C   0  0  0  0  0  0  0  0  0  0  0  0
    4.4403  -13.2429   24.4895 C   0  0  0  0  0  0  0  0  0  0  0  0
    5.2968  -13.9282   24.1011 O   0  0  0  0  0  0  0  0  0  0  0  0
    4.2452  -11.7292   24.3631 N   0  0  0  0  0  0  0  0  0  0  0  0
    5.0112  -10.7471   23.6525 C   0  0  1  0  0  0  0  0  0  0  0  0
    4.9346  -10.9787   22.1488 C   0  0  0  0  0  0  0  0  0  0  0  0
    5.4148   -9.6635   21.5783 C   0  0  0  0  0  0  0  0  0  0  0  0
    4.7374   -8.6260   22.4544 C   0  0  0  0  0  0  0  0  0  0  0  0
    4.6345   -9.2529   23.8665 C   0  0  0  0  0  0  0  0  0  0  0  0
    5.6414   -8.5618   24.7993 C   0  0  0  0  0  0  0  0  0  0  0  0
    3.2237   -9.0456   24.4330 C   0  0  0  0  0  0  0  0  0  0  0  0
  1  2  1  0
  2  3  1  0
  3  4  1  0
  4  5  2  0
  5  6  1  0
  6  7  2  0
  7  8  1  0
  8  9  2  0
  8 10  1  0
 11 10  1  1
 11 12  1  0
 12 13  1  0
 13 14  1  0
 14 15  1  0
 15 16  1  0
 15 17  1  0
  7  3  1  0
 15 11  1  0
M  END
>  <inchikey>  (1371) 
NEABPGCERXPXAC-UHFFFAOYSA-N

>  <tags>  (1371) 
fragmenstein_placed,CpKRS_FrAncestor_bulkdock_iter2

>  <ref_pdb>  (1371) 
x0504a

>  <energy_score>  (1371) 
-30.789603

>  <distance_score>  (1371) 
0.512852

>  <HIPPO Pose ID>  (1371) 
60244

>  <ref_mols>  (1371) 
x0421c

>  <smiles>  (1371) 
CCn1ccnc1C(=O)N[C@H]1CCCC1(C)C

>  <HIPPO Compound ID>  (1371) 
164986

>  <alias>  (1371) 
NEABPGCERXPXAC-JTQLQIEISA-N-P13

>  <subsites>  (1371) 


>  <placement_batch>  (1371) 
CpKRS_FrAncestor_bulkdock_iter2

>  <name>  (1371) 
NEABPGCERXPXAC-JTQLQIEISA-N-P13

$$$$
YBMWPCGLVWPZCC-ZJUUUORDSA-N-P13
     RDKit          3D

 16 17  0  0  0  0  0  0  0  0999 V2000
    4.5747  -16.9253   25.5189 C   0  0  0  0  0  0  0  0  0  0  0  0
    4.4427  -15.8770   26.6113 C   0  0  0  0  0  0  0  0  0  0  0  0
    3.3730  -14.9398   26.3335 N   0  0  0  0  0  0  0  0  0  0  0  0
    2.1090  -15.0161   26.8554 C   0  0  0  0  0  0  0  0  0  0  0  0
    1.4344  -13.9454   26.3260 C   0  0  0  0  0  0  0  0  0  0  0  0
    2.2555  -13.2091   25.5138 N   0  0  0  0  0  0  0  0  0  0  0  0
    3.4385  -13.8176   25.5421 C   0  0  0  0  0  0  0  0  0  0  0  0
    4.6236  -13.2850   24.8570 C   0  0  0  0  0  0  0  0  0  0  0  0
    5.6470  -13.8424   24.8510 O   0  0  0  0  0  0  0  0  0  0  0  0
    4.2368  -11.9083   24.2978 N   0  0  0  0  0  0  0  0  0  0  0  0
    5.0420  -10.8882   23.6991 C   0  0  1  0  0  0  0  0  0  0  0  0
    4.8591  -10.7821   22.1930 C   0  0  0  0  0  0  0  0  0  0  0  0
    5.3338   -9.3741   21.8388 C   0  0  0  0  0  0  0  0  0  0  0  0
    5.5052   -8.6219   23.1594 C   0  0  0  0  0  0  0  0  0  0  0  0
    4.7933   -9.4682   24.2175 C   0  0  1  0  0  0  0  0  0  0  0  0
    3.3200   -9.0891   24.3486 C   0  0  0  0  0  0  0  0  0  0  0  0
  1  2  1  0
  2  3  1  0
  3  4  1  0
  4  5  2  0
  5  6  1  0
  6  7  2  0
  7  8  1  0
  8  9  2  0
  8 10  1  0
 11 10  1  1
 11 12  1  0
 12 13  1  0
 13 14  1  0
 14 15  1  0
 15 16  1  6
  7  3  1  0
 15 11  1  0
M  END
>  <inchikey>  (1372) 
YBMWPCGLVWPZCC-UHFFFAOYSA-N

>  <tags>  (1372) 
fragmenstein_placed,CpKRS_FrAncestor_bulkdock_iter2

>  <ref_pdb>  (1372) 
x0504a

>  <energy_score>  (1372) 
-8.035533

>  <distance_score>  (1372) 
0.285158

>  <HIPPO Pose ID>  (1372) 
60252

>  <ref_mols>  (1372) 
x0421c

>  <smiles>  (1372) 
CCn1ccnc1C(=O)N[C@H]1CCC[C@H]1C

>  <HIPPO Compound ID>  (1372) 
451914

>  <alias>  (1372) 
YBMWPCGLVWPZCC-ZJUUUORDSA-N-P13

>  <subsites>  (1372) 


>  <placement_batch>  (1372) 
CpKRS_FrAncestor_bulkdock_iter2

>  <name>  (1372) 
YBMWPCGLVWPZCC-ZJUUUORDSA-N-P13

$$$$
VFCVXYVTSGZXQD-VHSXEESVSA-N-P13
     RDKit          3D

 16 17  0  0  0  0  0  0  0  0999 V2000
    5.4877  -15.6588   26.6223 C   0  0  0  0  0  0  0  0  0  0  0  0
    4.1636  -16.0616   26.0061 C   0  0  0  0  0  0  0  0  0  0  0  0
    3.1432  -15.0373   26.1022 N   0  0  0  0  0  0  0  0  0  0  0  0
    2.0474  -15.0771   26.9183 C   0  0  0  0  0  0  0  0  0  0  0  0
    1.3700  -13.9096   26.6671 C   0  0  0  0  0  0  0  0  0  0  0  0
    2.0463  -13.1380   25.7574 N   0  0  0  0  0  0  0  0  0  0  0  0
    3.1168  -13.8446   25.4153 C   0  0  0  0  0  0  0  0  0  0  0  0
    4.1846  -13.3454   24.5467 C   0  0  0  0  0  0  0  0  0  0  0  0
    4.9381  -14.0665   24.0311 O   0  0  0  0  0  0  0  0  0  0  0  0
    4.1355  -11.8155   24.5748 N   0  0  0  0  0  0  0  0  0  0  0  0
    5.0461  -10.8521   24.0599 C   0  0  2  0  0  0  0  0  0  0  0  0
    4.7727   -9.4103   24.4497 C   0  0  0  0  0  0  0  0  0  0  0  0
    5.7637   -8.6746   23.5652 C   0  0  0  0  0  0  0  0  0  0  0  0
    5.7215   -9.4491   22.2423 C   0  0  2  0  0  0  0  0  0  0  0  0
    4.8806   -8.7015   21.2469 C   0  0  0  0  0  0  0  0  0  0  0  0
    5.1101  -10.8200   22.5452 C   0  0  0  0  0  0  0  0  0  0  0  0
  1  2  1  0
  2  3  1  0
  3  4  1  0
  4  5  2  0
  5  6  1  0
  6  7  2  0
  7  8  1  0
  8  9  2  0
  8 10  1  0
 11 10  1  6
 11 12  1  0
 12 13  1  0
 13 14  1  0
 14 15  1  6
 14 16  1  0
  7  3  1  0
 16 11  1  0
M  END
>  <inchikey>  (1373) 
VFCVXYVTSGZXQD-UHFFFAOYSA-N

>  <tags>  (1373) 
fragmenstein_placed,CpKRS_FrAncestor_bulkdock_iter2

>  <ref_pdb>  (1373) 
x0504a

>  <energy_score>  (1373) 
-3.267309

>  <distance_score>  (1373) 
0.57194

>  <HIPPO Pose ID>  (1373) 
60256

>  <ref_mols>  (1373) 
x0421c

>  <smiles>  (1373) 
CCn1ccnc1C(=O)N[C@@H]1CC[C@H](C)C1

>  <HIPPO Compound ID>  (1373) 
451916

>  <alias>  (1373) 
VFCVXYVTSGZXQD-VHSXEESVSA-N-P13

>  <subsites>  (1373) 


>  <placement_batch>  (1373) 
CpKRS_FrAncestor_bulkdock_iter2

>  <name>  (1373) 
VFCVXYVTSGZXQD-VHSXEESVSA-N-P13

$$$$
WCRXTGORRIAFDQ-UHFFFAOYSA-N-P7
     RDKit          3D

 12 12  0  0  0  0  0  0  0  0999 V2000
    5.3814  -10.2209   22.8719 C   0  0  0  0  0  0  0  0  0  0  0  0
    5.4145   -9.9696   24.3951 C   0  0  2  0  0  0  0  0  0  0  0  0
    4.4557  -10.9115   25.0562 N   0  0  0  0  0  0  0  0  0  0  0  0
    4.9303  -12.3150   25.0043 C   0  0  0  0  0  0  0  0  0  0  0  0
    3.9870  -13.3024   25.7164 C   0  0  0  0  0  0  0  0  0  0  0  0
    3.7916  -12.9257   27.1120 N   0  0  0  0  0  0  0  0  0  0  0  0
    3.2598  -11.5657   27.1843 C   0  0  0  0  0  0  0  0  0  0  0  0
    4.1739  -10.5489   26.4677 C   0  0  0  0  0  0  0  0  0  0  0  0
    5.1532   -8.4497   24.5710 C   0  0  0  0  0  0  0  0  0  0  0  0
    6.0743   -7.7163   23.8968 F   0  0  0  0  0  0  0  0  0  0  0  0
    3.9314   -8.1141   24.0817 F   0  0  0  0  0  0  0  0  0  0  0  0
    5.2160   -8.0576   25.8612 F   0  0  0  0  0  0  0  0  0  0  0  0
  2  1  1  6
  2  3  1  0
  3  4  1  0
  4  5  1  0
  5  6  1  0
  6  7  1  0
  7  8  1  0
  2  9  1  0
  9 10  1  0
  9 11  1  0
  9 12  1  0
  8  3  1  0
M  END
>  <inchikey>  (1374) 
WCRXTGORRIAFDQ-UHFFFAOYSA-N

>  <tags>  (1374) 
fragmenstein_placed,CpKRS_FrAncestor_bulkdock_iter2

>  <ref_pdb>  (1374) 
x0504a

>  <energy_score>  (1374) 
-39.003845

>  <distance_score>  (1374) 
0.552625

>  <HIPPO Pose ID>  (1374) 
60259

>  <ref_mols>  (1374) 
x0414b

>  <smiles>  (1374) 
CC(N1CCNCC1)C(F)(F)F

>  <HIPPO Compound ID>  (1374) 
161218

>  <alias>  (1374) 
WCRXTGORRIAFDQ-UHFFFAOYSA-N-P7

>  <subsites>  (1374) 


>  <placement_batch>  (1374) 
CpKRS_FrAncestor_bulkdock_iter2

>  <name>  (1374) 
WCRXTGORRIAFDQ-UHFFFAOYSA-N-P7

$$$$
IBODGTMVMJMAQQ-UHFFFAOYSA-N-P60
     RDKit          3D

 16 17  0  0  0  0  0  0  0  0999 V2000
   -3.4910  -32.7710   25.7366 C   0  0  0  0  0  0  0  0  0  0  0  0
   -2.2744  -32.8904   24.8250 C   0  0  0  0  0  0  0  0  0  0  0  0
   -1.8177  -31.5915   24.3212 N   0  0  0  0  0  0  0  0  0  0  0  0
   -0.7703  -31.7484   23.2985 C   0  0  0  0  0  0  0  0  0  0  0  0
   -0.3414  -30.3985   22.6584 C   0  0  0  0  0  0  0  0  0  0  0  0
   -0.4543  -29.1979   23.5186 N   0  0  0  0  0  0  0  0  0  0  0  0
   -1.7164  -28.4868   23.2552 C   0  0  0  0  0  0  0  0  0  0  0  0
   -1.7970  -27.1448   23.9548 C   0  0  0  0  0  0  0  0  0  0  0  0
   -1.0455  -26.0558   23.4910 C   0  0  0  0  0  0  0  0  0  0  0  0
   -1.1274  -24.8176   24.1281 C   0  0  0  0  0  0  0  0  0  0  0  0
   -1.9321  -24.6604   25.2550 C   0  0  0  0  0  0  0  0  0  0  0  0
   -2.6683  -25.7417   25.7279 C   0  0  0  0  0  0  0  0  0  0  0  0
   -3.7641  -25.5413   27.2508 Br  0  0  0  0  0  0  0  0  0  0  0  0
   -2.6135  -26.9757   25.0821 C   0  0  0  0  0  0  0  0  0  0  0  0
   -0.3325  -29.6122   24.9259 C   0  0  0  0  0  0  0  0  0  0  0  0
   -1.3411  -30.6952   25.3948 C   0  0  0  0  0  0  0  0  0  0  0  0
  1  2  1  0
  2  3  1  0
  3  4  1  0
  4  5  1  0
  5  6  1  0
  6  7  1  0
  7  8  1  0
  8  9  2  0
  9 10  1  0
 10 11  2  0
 11 12  1  0
 12 13  1  0
 12 14  2  0
  6 15  1  0
 15 16  1  0
 16  3  1  0
 14  8  1  0
M  END
>  <inchikey>  (1375) 
IBODGTMVMJMAQQ-UHFFFAOYSA-N

>  <tags>  (1375) 
fragmenstein_placed,CpKRS_FrAncestor_bulkdock_iter2

>  <ref_pdb>  (1375) 
x0504a

>  <energy_score>  (1375) 
-25.556541

>  <distance_score>  (1375) 
0.392002

>  <HIPPO Pose ID>  (1375) 
60261

>  <ref_mols>  (1375) 
x0675b

>  <smiles>  (1375) 
CCN1CCN(Cc2cccc(Br)c2)CC1

>  <HIPPO Compound ID>  (1375) 
215384

>  <alias>  (1375) 
IBODGTMVMJMAQQ-UHFFFAOYSA-N-P60

>  <subsites>  (1375) 


>  <placement_batch>  (1375) 
CpKRS_FrAncestor_bulkdock_iter2

>  <name>  (1375) 
IBODGTMVMJMAQQ-UHFFFAOYSA-N-P60

$$$$
LBUSHCOBJIVLJL-UHFFFAOYSA-N-P60
     RDKit          3D

 16 17  0  0  0  0  0  0  0  0999 V2000
   -2.9648  -33.4541   22.8831 C   0  0  0  0  0  0  0  0  0  0  0  0
   -2.8814  -32.1646   23.6935 C   0  0  0  0  0  0  0  0  0  0  0  0
   -1.5700  -31.9575   24.3218 N   0  0  0  0  0  0  0  0  0  0  0  0
   -1.6201  -30.8543   25.3087 C   0  0  0  0  0  0  0  0  0  0  0  0
   -0.6371  -29.6868   25.0525 C   0  0  0  0  0  0  0  0  0  0  0  0
   -0.6252  -29.1863   23.6690 N   0  0  0  0  0  0  0  0  0  0  0  0
   -1.8126  -28.3859   23.3389 C   0  0  0  0  0  0  0  0  0  0  0  0
   -1.8759  -27.0613   24.0716 C   0  0  0  0  0  0  0  0  0  0  0  0
   -1.1037  -25.9793   23.6327 C   0  0  0  0  0  0  0  0  0  0  0  0
   -1.1885  -24.7488   24.2794 C   0  0  0  0  0  0  0  0  0  0  0  0
   -2.0135  -24.5930   25.3923 C   0  0  0  0  0  0  0  0  0  0  0  0
   -2.7861  -25.6612   25.8548 C   0  0  0  0  0  0  0  0  0  0  0  0
   -3.6535  -25.4946   27.0654 C   0  0  0  0  0  0  0  0  0  0  0  0
   -2.7103  -26.8923   25.1897 C   0  0  0  0  0  0  0  0  0  0  0  0
   -0.4666  -30.3122   22.7190 C   0  0  0  0  0  0  0  0  0  0  0  0
   -0.4806  -31.7261   23.3531 C   0  0  0  0  0  0  0  0  0  0  0  0
  1  2  1  0
  2  3  1  0
  3  4  1  0
  4  5  1  0
  5  6  1  0
  6  7  1  0
  7  8  1  0
  8  9  2  0
  9 10  1  0
 10 11  2  0
 11 12  1  0
 12 13  1  0
 12 14  2  0
  6 15  1  0
 15 16  1  0
 16  3  1  0
 14  8  1  0
M  END
>  <inchikey>  (1376) 
LBUSHCOBJIVLJL-UHFFFAOYSA-N

>  <tags>  (1376) 
fragmenstein_placed,CpKRS_FrAncestor_bulkdock_iter2

>  <ref_pdb>  (1376) 
x0504a

>  <energy_score>  (1376) 
-23.495924

>  <distance_score>  (1376) 
0.335655

>  <HIPPO Pose ID>  (1376) 
60263

>  <ref_mols>  (1376) 
x0675b

>  <smiles>  (1376) 
CCN1CCN(Cc2cccc(C)c2)CC1

>  <HIPPO Compound ID>  (1376) 
451917

>  <alias>  (1376) 
LBUSHCOBJIVLJL-UHFFFAOYSA-N-P60

>  <subsites>  (1376) 


>  <placement_batch>  (1376) 
CpKRS_FrAncestor_bulkdock_iter2

>  <name>  (1376) 
LBUSHCOBJIVLJL-UHFFFAOYSA-N-P60

$$$$
HKTOGSHUZQDJFN-UHFFFAOYSA-N-P60
     RDKit          3D

 16 17  0  0  0  0  0  0  0  0999 V2000
   -3.7114  -33.0014   24.7986 C   0  0  0  0  0  0  0  0  0  0  0  0
   -2.7441  -32.4075   23.7788 C   0  0  0  0  0  0  0  0  0  0  0  0
   -1.4702  -32.0139   24.3923 N   0  0  0  0  0  0  0  0  0  0  0  0
   -0.4296  -31.7611   23.3754 C   0  0  0  0  0  0  0  0  0  0  0  0
   -0.5068  -30.3691   22.7033 C   0  0  0  0  0  0  0  0  0  0  0  0
   -0.6248  -29.2204   23.6332 N   0  0  0  0  0  0  0  0  0  0  0  0
   -1.8000  -28.4069   23.2907 C   0  0  0  0  0  0  0  0  0  0  0  0
   -1.8492  -27.0748   24.0070 C   0  0  0  0  0  0  0  0  0  0  0  0
   -1.0825  -25.9956   23.5465 C   0  0  0  0  0  0  0  0  0  0  0  0
   -1.1503  -24.7577   24.1856 C   0  0  0  0  0  0  0  0  0  0  0  0
   -1.9494  -24.5943   25.3158 C   0  0  0  0  0  0  0  0  0  0  0  0
   -2.6950  -25.6667   25.7919 C   0  0  0  0  0  0  0  0  0  0  0  0
   -3.6774  -25.4728   27.1898 Cl  0  0  0  0  0  0  0  0  0  0  0  0
   -2.6602  -26.8975   25.1387 C   0  0  0  0  0  0  0  0  0  0  0  0
   -0.6310  -29.6920   25.0291 C   0  0  0  0  0  0  0  0  0  0  0  0
   -1.6121  -30.8556   25.3013 C   0  0  0  0  0  0  0  0  0  0  0  0
  1  2  1  0
  2  3  1  0
  3  4  1  0
  4  5  1  0
  5  6  1  0
  6  7  1  0
  7  8  1  0
  8  9  2  0
  9 10  1  0
 10 11  2  0
 11 12  1  0
 12 13  1  0
 12 14  2  0
  6 15  1  0
 15 16  1  0
 16  3  1  0
 14  8  1  0
M  END
>  <inchikey>  (1377) 
HKTOGSHUZQDJFN-UHFFFAOYSA-N

>  <tags>  (1377) 
fragmenstein_placed,CpKRS_FrAncestor_bulkdock_iter2

>  <ref_pdb>  (1377) 
x0504a

>  <energy_score>  (1377) 
-28.821055

>  <distance_score>  (1377) 
0.336402

>  <HIPPO Pose ID>  (1377) 
60265

>  <ref_mols>  (1377) 
x0675b

>  <smiles>  (1377) 
CCN1CCN(Cc2cccc(Cl)c2)CC1

>  <HIPPO Compound ID>  (1377) 
451918

>  <alias>  (1377) 
HKTOGSHUZQDJFN-UHFFFAOYSA-N-P60

>  <subsites>  (1377) 


>  <placement_batch>  (1377) 
CpKRS_FrAncestor_bulkdock_iter2

>  <name>  (1377) 
HKTOGSHUZQDJFN-UHFFFAOYSA-N-P60

$$$$
RDYAISGPAMENKC-UHFFFAOYSA-N-P7
     RDKit          3D

 13 13  0  0  0  0  0  0  0  0999 V2000
    0.6078  -13.3890   26.2481 C   0  0  0  0  0  0  0  0  0  0  0  0
    1.8220  -13.7554   27.1003 C   0  0  0  0  0  0  0  0  0  0  0  0
    3.1312  -13.1966   26.7268 N   0  0  0  0  0  0  0  0  0  0  0  0
    3.4648  -13.4415   25.3184 C   0  0  0  0  0  0  0  0  0  0  0  0
    4.7321  -12.7048   24.8338 C   0  0  0  0  0  0  0  0  0  0  0  0
    4.6047  -11.2635   25.1113 N   0  0  0  0  0  0  0  0  0  0  0  0
    5.5620  -10.3977   24.4140 C   0  0  1  0  0  0  0  0  0  0  0  0
    5.4720  -10.5657   22.8847 C   0  0  0  0  0  0  0  0  0  0  0  0
    5.2212   -8.9282   24.6251 C   0  0  0  0  0  0  0  0  0  0  0  0
    3.7651   -8.5633   24.6343 C   0  0  0  0  0  0  0  0  0  0  0  0
    6.0919   -8.0538   24.6169 O   0  0  0  0  0  0  0  0  0  0  0  0
    4.5450  -11.1106   26.5813 C   0  0  0  0  0  0  0  0  0  0  0  0
    3.2407  -11.7735   27.0840 C   0  0  0  0  0  0  0  0  0  0  0  0
  1  2  1  0
  2  3  1  0
  3  4  1  0
  4  5  1  0
  5  6  1  0
  6  7  1  0
  7  8  1  6
  7  9  1  0
  9 10  1  0
  9 11  2  0
  6 12  1  0
 12 13  1  0
 13  3  1  0
M  END
>  <inchikey>  (1378) 
RDYAISGPAMENKC-UHFFFAOYSA-N

>  <tags>  (1378) 
fragmenstein_placed,CpKRS_FrAncestor_bulkdock_iter2

>  <ref_pdb>  (1378) 
x0504a

>  <energy_score>  (1378) 
-29.147705

>  <distance_score>  (1378) 
0.77211

>  <HIPPO Pose ID>  (1378) 
60269

>  <ref_mols>  (1378) 
x0414b

>  <smiles>  (1378) 
CCN1CCN(C(C)C(C)=O)CC1

>  <HIPPO Compound ID>  (1378) 
274578

>  <alias>  (1378) 
RDYAISGPAMENKC-UHFFFAOYSA-N-P7

>  <subsites>  (1378) 


>  <placement_batch>  (1378) 
CpKRS_FrAncestor_bulkdock_iter2

>  <name>  (1378) 
RDYAISGPAMENKC-UHFFFAOYSA-N-P7

$$$$
AIOVOVIQSIDDMK-UHFFFAOYSA-N-P7
     RDKit          3D

 12 12  0  0  0  0  0  0  0  0999 V2000
    0.7861  -13.7115   27.4004 C   0  0  0  0  0  0  0  0  0  0  0  0
    1.9292  -14.0410   26.4457 C   0  0  0  0  0  0  0  0  0  0  0  0
    3.1187  -13.1629   26.5055 N   0  0  0  0  0  0  0  0  0  0  0  0
    2.7497  -11.7461   26.6555 C   0  0  0  0  0  0  0  0  0  0  0  0
    3.8814  -10.7258   26.3889 C   0  0  0  0  0  0  0  0  0  0  0  0
    4.4555  -10.9404   25.0497 N   0  0  0  0  0  0  0  0  0  0  0  0
    5.3943   -9.9083   24.5693 C   0  0  1  0  0  0  0  0  0  0  0  0
    5.5154  -10.0341   23.0360 C   0  0  0  0  0  0  0  0  0  0  0  0
    4.9566   -8.4474   24.8194 C   0  0  0  0  0  0  0  0  0  0  0  0
    3.7724   -8.2073   24.1780 F   0  0  0  0  0  0  0  0  0  0  0  0
    5.0112  -12.3084   25.0384 C   0  0  0  0  0  0  0  0  0  0  0  0
    3.9155  -13.3663   25.2824 C   0  0  0  0  0  0  0  0  0  0  0  0
  1  2  1  0
  2  3  1  0
  3  4  1  0
  4  5  1  0
  5  6  1  0
  6  7  1  0
  7  8  1  6
  7  9  1  0
  9 10  1  0
  6 11  1  0
 11 12  1  0
 12  3  1  0
M  END
>  <inchikey>  (1379) 
AIOVOVIQSIDDMK-UHFFFAOYSA-N

>  <tags>  (1379) 
fragmenstein_placed,CpKRS_FrAncestor_bulkdock_iter2

>  <ref_pdb>  (1379) 
x0504a

>  <energy_score>  (1379) 
-35.809331

>  <distance_score>  (1379) 
0.742668

>  <HIPPO Pose ID>  (1379) 
60273

>  <ref_mols>  (1379) 
x0414b

>  <smiles>  (1379) 
CCN1CCN(C(C)CF)CC1

>  <HIPPO Compound ID>  (1379) 
269161

>  <alias>  (1379) 
AIOVOVIQSIDDMK-UHFFFAOYSA-N-P7

>  <subsites>  (1379) 


>  <placement_batch>  (1379) 
CpKRS_FrAncestor_bulkdock_iter2

>  <name>  (1379) 
AIOVOVIQSIDDMK-UHFFFAOYSA-N-P7

$$$$
CTBIJTKHBYERAD-UHFFFAOYSA-N-P6
     RDKit          3D

 12 12  0  0  0  0  0  0  0  0999 V2000
    0.7848  -14.1488   26.7967 C   0  0  0  0  0  0  0  0  0  0  0  0
    1.5562  -13.5868   25.6124 C   0  0  0  0  0  0  0  0  0  0  0  0
    2.8377  -12.9338   25.9569 N   0  0  0  0  0  0  0  0  0  0  0  0
    2.6144  -11.7143   26.7661 C   0  0  0  0  0  0  0  0  0  0  0  0
    3.8577  -10.8045   26.8763 C   0  0  0  0  0  0  0  0  0  0  0  0
    4.3281  -10.4016   25.5372 N   0  0  0  0  0  0  0  0  0  0  0  0
    5.3743   -9.3623   25.5398 C   0  0  2  0  0  0  0  0  0  0  0  0
    4.9646   -8.1250   26.3608 C   0  0  0  0  0  0  0  0  0  0  0  0
    5.6694   -8.8526   24.1725 C   0  0  0  0  0  0  0  0  0  0  0  0
    5.9095   -8.3985   23.1305 N   0  0  0  0  0  0  0  0  0  0  0  0
    4.7242  -11.6324   24.8290 C   0  0  0  0  0  0  0  0  0  0  0  0
    3.5230  -12.5908   24.6897 C   0  0  0  0  0  0  0  0  0  0  0  0
  1  2  1  0
  2  3  1  0
  3  4  1  0
  4  5  1  0
  5  6  1  0
  6  7  1  0
  7  8  1  1
  7  9  1  0
  9 10  3  0
  6 11  1  0
 11 12  1  0
 12  3  1  0
M  END
>  <inchikey>  (1380) 
CTBIJTKHBYERAD-UHFFFAOYSA-N

>  <tags>  (1380) 
fragmenstein_placed,CpKRS_FrAncestor_bulkdock_iter2

>  <ref_pdb>  (1380) 
x0504a

>  <energy_score>  (1380) 
-45.860419

>  <distance_score>  (1380) 
0.84049

>  <HIPPO Pose ID>  (1380) 
60274

>  <ref_mols>  (1380) 
x0414a

>  <smiles>  (1380) 
CCN1CCN(C(C)C#N)CC1

>  <HIPPO Compound ID>  (1380) 
269147

>  <alias>  (1380) 
CTBIJTKHBYERAD-UHFFFAOYSA-N-P6

>  <subsites>  (1380) 


>  <placement_batch>  (1380) 
CpKRS_FrAncestor_bulkdock_iter2

>  <name>  (1380) 
CTBIJTKHBYERAD-UHFFFAOYSA-N-P6

$$$$
ITFCZPZJKDPEIR-UHFFFAOYSA-N-P7
     RDKit          3D

 12 12  0  0  0  0  0  0  0  0999 V2000
    0.6290  -13.8697   27.2350 C   0  0  0  0  0  0  0  0  0  0  0  0
    1.8553  -14.1207   26.3611 C   0  0  0  0  0  0  0  0  0  0  0  0
    3.0179  -13.2498   26.6201 N   0  0  0  0  0  0  0  0  0  0  0  0
    2.6307  -11.8339   26.7194 C   0  0  0  0  0  0  0  0  0  0  0  0
    3.7973  -10.8263   26.6853 C   0  0  0  0  0  0  0  0  0  0  0  0
    4.6606  -11.0468   25.5074 N   0  0  0  0  0  0  0  0  0  0  0  0
    5.7262  -10.0418   25.4343 C   0  0  0  0  0  0  0  0  0  0  0  0
    5.3836   -8.9227   24.4522 C   0  0  0  0  0  0  0  0  0  0  0  0
    4.2904   -9.1528   23.4407 C   0  0  0  0  0  0  0  0  0  0  0  0
    6.0290   -7.8698   24.4305 O   0  0  0  0  0  0  0  0  0  0  0  0
    5.1782  -12.4229   25.5991 C   0  0  0  0  0  0  0  0  0  0  0  0
    4.0280  -13.4511   25.5682 C   0  0  0  0  0  0  0  0  0  0  0  0
  1  2  1  0
  2  3  1  0
  3  4  1  0
  4  5  1  0
  5  6  1  0
  6  7  1  0
  7  8  1  0
  8  9  1  0
  8 10  2  0
  6 11  1  0
 11 12  1  0
 12  3  1  0
M  END
>  <inchikey>  (1381) 
ITFCZPZJKDPEIR-UHFFFAOYSA-N

>  <tags>  (1381) 
fragmenstein_placed,CpKRS_FrAncestor_bulkdock_iter2

>  <ref_pdb>  (1381) 
x0504a

>  <energy_score>  (1381) 
-40.892772

>  <distance_score>  (1381) 
0.606241

>  <HIPPO Pose ID>  (1381) 
60279

>  <ref_mols>  (1381) 
x0414b

>  <smiles>  (1381) 
CCN1CCN(CC(C)=O)CC1

>  <HIPPO Compound ID>  (1381) 
269154

>  <alias>  (1381) 
ITFCZPZJKDPEIR-UHFFFAOYSA-N-P7

>  <subsites>  (1381) 


>  <placement_batch>  (1381) 
CpKRS_FrAncestor_bulkdock_iter2

>  <name>  (1381) 
ITFCZPZJKDPEIR-UHFFFAOYSA-N-P7

$$$$
YRWJBPFILVNPSN-UHFFFAOYSA-N-P7
     RDKit          3D

 12 12  0  0  0  0  0  0  0  0999 V2000
    0.5973  -13.7974   27.3260 C   0  0  0  0  0  0  0  0  0  0  0  0
    1.7985  -14.0964   26.4338 C   0  0  0  0  0  0  0  0  0  0  0  0
    2.9923  -13.2567   26.6531 N   0  0  0  0  0  0  0  0  0  0  0  0
    2.6501  -11.8273   26.7408 C   0  0  0  0  0  0  0  0  0  0  0  0
    3.8379  -10.8458   26.6386 C   0  0  0  0  0  0  0  0  0  0  0  0
    4.6397  -11.1192   25.4295 N   0  0  0  0  0  0  0  0  0  0  0  0
    5.7196  -10.1502   25.2548 C   0  0  0  0  0  0  0  0  0  0  0  0
    5.2736   -8.8050   24.6348 C   0  0  2  0  0  0  0  0  0  0  0  0
    4.4998   -9.0019   23.3354 C   0  0  0  0  0  0  0  0  0  0  0  0
    6.4207   -8.0013   24.3337 O   0  0  0  0  0  0  0  0  0  0  0  0
    5.1385  -12.5010   25.5479 C   0  0  0  0  0  0  0  0  0  0  0  0
    3.9693  -13.5053   25.5816 C   0  0  0  0  0  0  0  0  0  0  0  0
  1  2  1  0
  2  3  1  0
  3  4  1  0
  4  5  1  0
  5  6  1  0
  6  7  1  0
  7  8  1  0
  8  9  1  6
  8 10  1  0
  6 11  1  0
 11 12  1  0
 12  3  1  0
M  END
>  <inchikey>  (1382) 
YRWJBPFILVNPSN-UHFFFAOYSA-N

>  <tags>  (1382) 
fragmenstein_placed,CpKRS_FrAncestor_bulkdock_iter2

>  <ref_pdb>  (1382) 
x0504a

>  <energy_score>  (1382) 
-36.930606

>  <distance_score>  (1382) 
0.593072

>  <HIPPO Pose ID>  (1382) 
60281

>  <ref_mols>  (1382) 
x0414b

>  <smiles>  (1382) 
CCN1CCN(CC(C)O)CC1

>  <HIPPO Compound ID>  (1382) 
269153

>  <alias>  (1382) 
YRWJBPFILVNPSN-UHFFFAOYSA-N-P7

>  <subsites>  (1382) 


>  <placement_batch>  (1382) 
CpKRS_FrAncestor_bulkdock_iter2

>  <name>  (1382) 
YRWJBPFILVNPSN-UHFFFAOYSA-N-P7

$$$$
XJIFKCSCSWIPAN-UHFFFAOYSA-N-P6
     RDKit          3D

 12 12  0  0  0  0  0  0  0  0999 V2000
    1.1213  -14.7840   25.4133 C   0  0  0  0  0  0  0  0  0  0  0  0
    1.8586  -14.0310   26.5151 C   0  0  0  0  0  0  0  0  0  0  0  0
    2.4972  -12.8142   26.0133 N   0  0  0  0  0  0  0  0  0  0  0  0
    3.7516  -13.1018   25.3004 C   0  0  0  0  0  0  0  0  0  0  0  0
    4.3531  -11.8015   24.7308 C   0  0  0  0  0  0  0  0  0  0  0  0
    4.6426  -10.7956   25.7716 N   0  0  0  0  0  0  0  0  0  0  0  0
    5.1772   -9.5156   25.2620 C   0  0  1  0  0  0  0  0  0  0  0  0
    6.6149   -9.7365   24.8588 C   0  0  0  0  0  0  0  0  0  0  0  0
    4.4402   -8.8749   24.0722 C   0  0  0  0  0  0  0  0  0  0  0  0
    5.1397   -7.7414   23.5565 O   0  0  0  0  0  0  0  0  0  0  0  0
    3.4285  -10.5646   26.5830 C   0  0  0  0  0  0  0  0  0  0  0  0
    2.8008  -11.8717   27.1087 C   0  0  0  0  0  0  0  0  0  0  0  0
  1  2  1  0
  2  3  1  0
  3  4  1  0
  4  5  1  0
  5  6  1  0
  6  7  1  0
  7  8  1  6
  7  9  1  0
  9 10  1  0
  6 11  1  0
 11 12  1  0
 12  3  1  0
M  END
>  <inchikey>  (1383) 
XJIFKCSCSWIPAN-UHFFFAOYSA-N

>  <tags>  (1383) 
fragmenstein_placed,CpKRS_FrAncestor_bulkdock_iter2

>  <ref_pdb>  (1383) 
x0504a

>  <energy_score>  (1383) 
-43.67174

>  <distance_score>  (1383) 
0.812528

>  <HIPPO Pose ID>  (1383) 
60282

>  <ref_mols>  (1383) 
x0414a

>  <smiles>  (1383) 
CCN1CCN(C(C)CO)CC1

>  <HIPPO Compound ID>  (1383) 
269000

>  <alias>  (1383) 
XJIFKCSCSWIPAN-UHFFFAOYSA-N-P6

>  <subsites>  (1383) 


>  <placement_batch>  (1383) 
CpKRS_FrAncestor_bulkdock_iter2

>  <name>  (1383) 
XJIFKCSCSWIPAN-UHFFFAOYSA-N-P6

$$$$
AVDMWWIAKMCQIU-UHFFFAOYSA-N-P7
     RDKit          3D

 11 11  0  0  0  0  0  0  0  0999 V2000
    2.2625  -15.5072   25.9323 C   0  0  0  0  0  0  0  0  0  0  0  0
    2.0860  -14.0922   26.4770 C   0  0  0  0  0  0  0  0  0  0  0  0
    3.2948  -13.2510   26.3741 N   0  0  0  0  0  0  0  0  0  0  0  0
    3.7776  -13.1777   24.9863 C   0  0  0  0  0  0  0  0  0  0  0  0
    4.9131  -12.1558   24.7993 C   0  0  0  0  0  0  0  0  0  0  0  0
    4.4954  -10.8050   25.2075 N   0  0  0  0  0  0  0  0  0  0  0  0
    5.5349   -9.8121   24.9228 C   0  0  0  0  0  0  0  0  0  0  0  0
    4.9918   -8.3809   24.8740 C   0  0  0  0  0  0  0  0  0  0  0  0
    4.0491   -8.2751   23.8888 F   0  0  0  0  0  0  0  0  0  0  0  0
    4.1018  -10.8575   26.6319 C   0  0  0  0  0  0  0  0  0  0  0  0
    2.9722  -11.8896   26.8626 C   0  0  0  0  0  0  0  0  0  0  0  0
  1  2  1  0
  2  3  1  0
  3  4  1  0
  4  5  1  0
  5  6  1  0
  6  7  1  0
  7  8  1  0
  8  9  1  0
  6 10  1  0
 10 11  1  0
 11  3  1  0
M  END
>  <inchikey>  (1384) 
AVDMWWIAKMCQIU-UHFFFAOYSA-N

>  <tags>  (1384) 
fragmenstein_placed,CpKRS_FrAncestor_bulkdock_iter2

>  <ref_pdb>  (1384) 
x0504a

>  <energy_score>  (1384) 
-30.727767

>  <distance_score>  (1384) 
0.713782

>  <HIPPO Pose ID>  (1384) 
60285

>  <ref_mols>  (1384) 
x0414b

>  <smiles>  (1384) 
CCN1CCN(CCF)CC1

>  <HIPPO Compound ID>  (1384) 
216912

>  <alias>  (1384) 
AVDMWWIAKMCQIU-UHFFFAOYSA-N-P7

>  <subsites>  (1384) 


>  <placement_batch>  (1384) 
CpKRS_FrAncestor_bulkdock_iter2

>  <name>  (1384) 
AVDMWWIAKMCQIU-UHFFFAOYSA-N-P7

$$$$
CHLGYWIMIGYVPX-UHFFFAOYSA-N-P6
     RDKit          3D

 14 14  0  0  0  0  0  0  0  0999 V2000
    1.9333  -15.2640   25.8724 C   0  0  0  0  0  0  0  0  0  0  0  0
    1.7818  -13.8588   26.4473 C   0  0  0  0  0  0  0  0  0  0  0  0
    3.0465  -13.1089   26.5581 N   0  0  0  0  0  0  0  0  0  0  0  0
    2.7738  -11.7757   27.1497 C   0  0  0  0  0  0  0  0  0  0  0  0
    3.9961  -10.8363   27.1426 C   0  0  0  0  0  0  0  0  0  0  0  0
    4.4779  -10.6863   25.7713 N   0  0  0  0  0  0  0  0  0  0  0  0
    5.4206   -9.6012   25.5794 C   0  0  0  0  0  0  0  0  0  0  0  0
    5.4574   -9.0422   24.1722 C   0  0  0  0  0  0  0  0  0  0  0  0
    6.6097   -8.4087   23.8361 F   0  0  0  0  0  0  0  0  0  0  0  0
    4.5213   -9.1405   23.2036 C   0  0  0  0  0  0  0  0  0  0  0  0
    4.8412   -8.6924   21.8049 C   0  0  0  0  0  0  0  0  0  0  0  0
    3.1365   -9.7051   23.3691 C   0  0  0  0  0  0  0  0  0  0  0  0
    4.9045  -11.9863   25.2548 C   0  0  0  0  0  0  0  0  0  0  0  0
    3.7180  -12.9752   25.2539 C   0  0  0  0  0  0  0  0  0  0  0  0
  1  2  1  0
  2  3  1  0
  3  4  1  0
  4  5  1  0
  5  6  1  0
  6  7  1  0
  7  8  1  0
  8  9  1  0
  8 10  2  3
 10 11  1  0
 10 12  1  0
  6 13  1  0
 13 14  1  0
 14  3  1  0
M  END
>  <inchikey>  (1385) 
CHLGYWIMIGYVPX-UHFFFAOYSA-N

>  <tags>  (1385) 
fragmenstein_placed,CpKRS_FrAncestor_bulkdock_iter2

>  <ref_pdb>  (1385) 
x0504a

>  <energy_score>  (1385) 
-29.867723

>  <distance_score>  (1385) 
0.652959

>  <HIPPO Pose ID>  (1385) 
60286

>  <ref_mols>  (1385) 
x0414a

>  <smiles>  (1385) 
CCN1CCN(CC(F)=C(C)C)CC1

>  <HIPPO Compound ID>  (1385) 
387108

>  <alias>  (1385) 
CHLGYWIMIGYVPX-UHFFFAOYSA-N-P6

>  <subsites>  (1385) 


>  <placement_batch>  (1385) 
CpKRS_FrAncestor_bulkdock_iter2

>  <name>  (1385) 
CHLGYWIMIGYVPX-UHFFFAOYSA-N-P6

$$$$
HUOKGKBTYCFARR-UHFFFAOYSA-N-P7
     RDKit          3D

 11 11  0  0  0  0  0  0  0  0999 V2000
    0.6358  -13.7011   27.3651 C   0  0  0  0  0  0  0  0  0  0  0  0
    1.7822  -14.0135   26.4100 C   0  0  0  0  0  0  0  0  0  0  0  0
    3.0034  -13.1958   26.5636 N   0  0  0  0  0  0  0  0  0  0  0  0
    2.6957  -11.7603   26.6869 C   0  0  0  0  0  0  0  0  0  0  0  0
    3.9109  -10.8110   26.5644 C   0  0  0  0  0  0  0  0  0  0  0  0
    4.6646  -11.0645   25.3194 N   0  0  0  0  0  0  0  0  0  0  0  0
    5.8245  -10.1754   25.1870 C   0  0  0  0  0  0  0  0  0  0  0  0
    5.5309   -8.8194   24.6767 C   0  0  0  0  0  0  0  0  0  0  0  0
    5.4041   -7.7602   24.2167 N   0  0  0  0  0  0  0  0  0  0  0  0
    5.0858  -12.4800   25.3401 C   0  0  0  0  0  0  0  0  0  0  0  0
    3.8828  -13.4366   25.4090 C   0  0  0  0  0  0  0  0  0  0  0  0
  1  2  1  0
  2  3  1  0
  3  4  1  0
  4  5  1  0
  5  6  1  0
  6  7  1  0
  7  8  1  0
  8  9  3  0
  6 10  1  0
 10 11  1  0
 11  3  1  0
M  END
>  <inchikey>  (1386) 
HUOKGKBTYCFARR-UHFFFAOYSA-N

>  <tags>  (1386) 
fragmenstein_placed,CpKRS_FrAncestor_bulkdock_iter2

>  <ref_pdb>  (1386) 
x0504a

>  <energy_score>  (1386) 
-38.05125

>  <distance_score>  (1386) 
0.682634

>  <HIPPO Pose ID>  (1386) 
60293

>  <ref_mols>  (1386) 
x0414b

>  <smiles>  (1386) 
CCN1CCN(CC#N)CC1

>  <HIPPO Compound ID>  (1386) 
214814

>  <alias>  (1386) 
HUOKGKBTYCFARR-UHFFFAOYSA-N-P7

>  <subsites>  (1386) 


>  <placement_batch>  (1386) 
CpKRS_FrAncestor_bulkdock_iter2

>  <name>  (1386) 
HUOKGKBTYCFARR-UHFFFAOYSA-N-P7

$$$$
NSPIVPHSLWMLIS-UHFFFAOYSA-N-P6
     RDKit          3D

 14 14  0  0  0  0  0  0  0  0999 V2000
    1.9773  -15.3426   25.6675 C   0  0  0  0  0  0  0  0  0  0  0  0
    1.7807  -13.9504   26.2583 C   0  0  0  0  0  0  0  0  0  0  0  0
    3.0244  -13.1880   26.4146 N   0  0  0  0  0  0  0  0  0  0  0  0
    3.7338  -12.9546   25.1605 C   0  0  0  0  0  0  0  0  0  0  0  0
    5.0086  -12.1072   25.3621 C   0  0  0  0  0  0  0  0  0  0  0  0
    4.8179  -10.8457   26.0729 N   0  0  0  0  0  0  0  0  0  0  0  0
    5.4582   -9.6403   25.5103 C   0  0  2  0  0  0  0  0  0  0  0  0
    5.1822   -8.4107   26.3175 C   0  0  0  0  0  0  0  0  0  0  0  0
    5.0032   -7.4449   26.9376 N   0  0  0  0  0  0  0  0  0  0  0  0
    5.2472   -9.3539   23.9894 C   0  0  0  0  0  0  0  0  0  0  0  0
    5.9682   -8.0753   23.5361 C   0  0  0  0  0  0  0  0  0  0  0  0
    3.7817   -9.3003   23.5708 C   0  0  0  0  0  0  0  0  0  0  0  0
    3.4690  -10.6648   26.6162 C   0  0  0  0  0  0  0  0  0  0  0  0
    2.7937  -11.9392   27.1621 C   0  0  0  0  0  0  0  0  0  0  0  0
  1  2  1  0
  2  3  1  0
  3  4  1  0
  4  5  1  0
  5  6  1  0
  6  7  1  0
  7  8  1  1
  8  9  3  0
  7 10  1  0
 10 11  1  0
 10 12  1  0
  6 13  1  0
 13 14  1  0
 14  3  1  0
M  END
>  <inchikey>  (1387) 
NSPIVPHSLWMLIS-UHFFFAOYSA-N

>  <tags>  (1387) 
fragmenstein_placed,CpKRS_FrAncestor_bulkdock_iter2

>  <ref_pdb>  (1387) 
x0504a

>  <energy_score>  (1387) 
-25.952654

>  <distance_score>  (1387) 
0.584069

>  <HIPPO Pose ID>  (1387) 
60294

>  <ref_mols>  (1387) 
x0414a

>  <smiles>  (1387) 
CCN1CCN(C(C#N)C(C)C)CC1

>  <HIPPO Compound ID>  (1387) 
387325

>  <alias>  (1387) 
NSPIVPHSLWMLIS-UHFFFAOYSA-N-P6

>  <subsites>  (1387) 


>  <placement_batch>  (1387) 
CpKRS_FrAncestor_bulkdock_iter2

>  <name>  (1387) 
NSPIVPHSLWMLIS-UHFFFAOYSA-N-P6

$$$$
HYSZWUPCSXTPSX-UHFFFAOYSA-N-P6
     RDKit          3D

 11 11  0  0  0  0  0  0  0  0999 V2000
    0.4751  -13.3640   26.8896 C   0  0  0  0  0  0  0  0  0  0  0  0
    1.7039  -13.5085   25.9975 C   0  0  0  0  0  0  0  0  0  0  0  0
    2.9237  -12.9024   26.5460 N   0  0  0  0  0  0  0  0  0  0  0  0
    2.7633  -11.4646   26.8365 C   0  0  0  0  0  0  0  0  0  0  0  0
    4.0785  -10.6556   26.9572 C   0  0  0  0  0  0  0  0  0  0  0  0
    5.0947  -10.9247   25.9219 N   0  0  0  0  0  0  0  0  0  0  0  0
    5.6770   -9.7192   25.3384 C   0  0  0  0  0  0  0  0  0  0  0  0
    4.9047   -9.0109   24.2198 C   0  0  0  0  0  0  0  0  0  0  0  0
    5.5582   -7.7943   23.8569 O   0  0  0  0  0  0  0  0  0  0  0  0
    4.6388  -11.9249   24.9571 C   0  0  0  0  0  0  0  0  0  0  0  0
    4.0892  -13.1675   25.6857 C   0  0  0  0  0  0  0  0  0  0  0  0
  1  2  1  0
  2  3  1  0
  3  4  1  0
  4  5  1  0
  5  6  1  0
  6  7  1  0
  7  8  1  0
  8  9  1  0
  6 10  1  0
 10 11  1  0
 11  3  1  0
M  END
>  <inchikey>  (1388) 
HYSZWUPCSXTPSX-UHFFFAOYSA-N

>  <tags>  (1388) 
fragmenstein_placed,CpKRS_FrAncestor_bulkdock_iter2

>  <ref_pdb>  (1388) 
x0504a

>  <energy_score>  (1388) 
-22.235195

>  <distance_score>  (1388) 
0.520905

>  <HIPPO Pose ID>  (1388) 
60298

>  <ref_mols>  (1388) 
x0414a

>  <smiles>  (1388) 
CCN1CCN(CCO)CC1

>  <HIPPO Compound ID>  (1388) 
161219

>  <alias>  (1388) 
HYSZWUPCSXTPSX-UHFFFAOYSA-N-P6

>  <subsites>  (1388) 


>  <placement_batch>  (1388) 
CpKRS_FrAncestor_bulkdock_iter2

>  <name>  (1388) 
HYSZWUPCSXTPSX-UHFFFAOYSA-N-P6

$$$$
TVFLJWJYSZDMQK-UHFFFAOYSA-N-P60
     RDKit          3D

 17 18  0  0  0  0  0  0  0  0999 V2000
   -2.7394  -33.5620   25.6960 C   0  0  0  0  0  0  0  0  0  0  0  0
   -2.1033  -33.0142   24.4221 C   0  0  0  0  0  0  0  0  0  0  0  0
   -1.0198  -32.0642   24.6977 N   0  0  0  0  0  0  0  0  0  0  0  0
   -1.4955  -30.8518   25.3966 C   0  0  0  0  0  0  0  0  0  0  0  0
   -0.7011  -29.5817   25.0229 C   0  0  0  0  0  0  0  0  0  0  0  0
   -0.8092  -29.2149   23.5941 N   0  0  0  0  0  0  0  0  0  0  0  0
   -1.9805  -28.3557   23.2933 C   0  0  2  0  0  0  0  0  0  0  0  0
   -2.1284  -28.0538   21.7842 C   0  0  0  0  0  0  0  0  0  0  0  0
   -1.9618  -27.0321   24.0615 C   0  0  0  0  0  0  0  0  0  0  0  0
   -1.1148  -25.9794   23.6927 C   0  0  0  0  0  0  0  0  0  0  0  0
   -1.1751  -24.7599   24.3631 C   0  0  0  0  0  0  0  0  0  0  0  0
   -2.0295  -24.5907   25.4504 C   0  0  0  0  0  0  0  0  0  0  0  0
   -2.8618  -25.6330   25.8603 C   0  0  0  0  0  0  0  0  0  0  0  0
   -3.7551  -25.4589   27.0505 C   0  0  0  0  0  0  0  0  0  0  0  0
   -2.8257  -26.8455   25.1585 C   0  0  0  0  0  0  0  0  0  0  0  0
   -0.8035  -30.4451   22.7605 C   0  0  0  0  0  0  0  0  0  0  0  0
   -0.2698  -31.7089   23.4725 C   0  0  0  0  0  0  0  0  0  0  0  0
  1  2  1  0
  2  3  1  0
  3  4  1  0
  4  5  1  0
  5  6  1  0
  6  7  1  0
  7  8  1  6
  7  9  1  0
  9 10  2  0
 10 11  1  0
 11 12  2  0
 12 13  1  0
 13 14  1  0
 13 15  2  0
  6 16  1  0
 16 17  1  0
 17  3  1  0
 15  9  1  0
M  END
>  <inchikey>  (1389) 
TVFLJWJYSZDMQK-UHFFFAOYSA-N

>  <tags>  (1389) 
fragmenstein_placed,CpKRS_FrAncestor_bulkdock_iter2

>  <ref_pdb>  (1389) 
x0504a

>  <energy_score>  (1389) 
-41.409303

>  <distance_score>  (1389) 
0.442671

>  <HIPPO Pose ID>  (1389) 
60301

>  <ref_mols>  (1389) 
x0675b

>  <smiles>  (1389) 
CCN1CCN(C(C)c2cccc(C)c2)CC1

>  <HIPPO Compound ID>  (1389) 
242011

>  <alias>  (1389) 
TVFLJWJYSZDMQK-UHFFFAOYSA-N-P60

>  <subsites>  (1389) 


>  <placement_batch>  (1389) 
CpKRS_FrAncestor_bulkdock_iter2

>  <name>  (1389) 
TVFLJWJYSZDMQK-UHFFFAOYSA-N-P60

$$$$
OOSRNOYRECBDKO-UHFFFAOYSA-N-P47
     RDKit          3D

 15 15  0  0  0  0  0  0  0  0999 V2000
    0.9205    6.3626   46.4988 C   0  0  0  0  0  0  0  0  0  0  0  0
    2.2532    6.2779   45.7835 C   0  0  0  0  0  0  0  0  0  0  0  0
    2.7274    4.9220   45.5770 N   0  0  0  0  0  0  0  0  0  0  0  0
    2.9941    4.0549   46.6088 C   0  0  0  0  0  0  0  0  0  0  0  0
    3.6140    2.9747   46.1984 N   0  0  0  0  0  0  0  0  0  0  0  0
    3.7041    3.1181   44.8454 C   0  0  0  0  0  0  0  0  0  0  0  0
    3.1191    4.2954   44.4120 C   0  0  0  0  0  0  0  0  0  0  0  0
    2.8724    4.6981   43.0084 C   0  0  0  0  0  0  0  0  0  0  0  0
    3.1859    6.0601   42.7490 N   0  0  0  0  0  0  0  0  0  0  0  0
    2.3877    7.1551   41.9595 C   0  0  0  0  0  0  0  0  0  0  0  0
    1.3211    7.1150   41.4748 O   0  0  0  0  0  0  0  0  0  0  0  0
    3.3076    8.3986   41.8873 C   0  0  0  0  0  0  0  0  0  0  0  0
    3.6926    8.6806   40.6151 F   0  0  0  0  0  0  0  0  0  0  0  0
    4.4601    8.1843   42.5959 F   0  0  0  0  0  0  0  0  0  0  0  0
    2.7340    9.5189   42.3923 F   0  0  0  0  0  0  0  0  0  0  0  0
  1  2  1  0
  2  3  1  0
  3  4  1  0
  4  5  2  0
  5  6  1  0
  6  7  2  0
  7  8  1  0
  8  9  1  0
  9 10  1  0
 10 11  2  0
 10 12  1  0
 12 13  1  0
 12 14  1  0
 12 15  1  0
  7  3  1  0
M  END
>  <inchikey>  (1390) 
OOSRNOYRECBDKO-UHFFFAOYSA-N

>  <tags>  (1390) 
fragmenstein_placed,CpKRS_FrAncestor_bulkdock_iter2

>  <ref_pdb>  (1390) 
x0504a

>  <energy_score>  (1390) 
-3.740771

>  <distance_score>  (1390) 
0.589238

>  <HIPPO Pose ID>  (1390) 
60377

>  <ref_mols>  (1390) 
x0504c

>  <smiles>  (1390) 
CCn1cncc1CNC(=O)C(F)(F)F

>  <HIPPO Compound ID>  (1390) 
451930

>  <alias>  (1390) 
OOSRNOYRECBDKO-UHFFFAOYSA-N-P47

>  <subsites>  (1390) 


>  <placement_batch>  (1390) 
CpKRS_FrAncestor_bulkdock_iter2

>  <name>  (1390) 
OOSRNOYRECBDKO-UHFFFAOYSA-N-P47

$$$$
UNOBLKTXTMGBAZ-UHFFFAOYSA-N-P4
     RDKit          3D

 15 16  0  0  0  0  0  0  0  0999 V2000
    3.2466  -16.3555   28.8344 C   0  0  0  0  0  0  0  0  0  0  0  0
    2.6265  -16.4506   27.4537 C   0  0  0  0  0  0  0  0  0  0  0  0
    2.3587  -15.1456   26.8914 N   0  0  0  0  0  0  0  0  0  0  0  0
    1.1867  -14.4530   27.0112 C   0  0  0  0  0  0  0  0  0  0  0  0
    1.1917  -13.3525   26.2906 N   0  0  0  0  0  0  0  0  0  0  0  0
    2.4250  -13.3502   25.6964 C   0  0  0  0  0  0  0  0  0  0  0  0
    2.7693  -12.3960   24.8041 N   0  0  0  0  0  0  0  0  0  0  0  0
    4.1016  -12.1640   24.0397 C   0  0  0  0  0  0  0  0  0  0  0  0
    5.1276  -12.7156   24.1227 O   0  0  0  0  0  0  0  0  0  0  0  0
    3.8373  -11.0314   23.0397 C   0  0  0  0  0  0  0  0  0  0  0  0
    4.9912  -10.8517   22.0419 C   0  0  0  0  0  0  0  0  0  0  0  0
    5.1548   -9.3515   21.8805 C   0  0  0  0  0  0  0  0  0  0  0  0
    4.8811   -8.8444   23.2821 C   0  0  0  0  0  0  0  0  0  0  0  0
    3.6772   -9.6658   23.7238 C   0  0  0  0  0  0  0  0  0  0  0  0
    3.1841  -14.4241   26.0852 C   0  0  0  0  0  0  0  0  0  0  0  0
  1  2  1  0
  2  3  1  0
  3  4  1  0
  4  5  2  0
  5  6  1  0
  6  7  1  0
  7  8  1  0
  8  9  2  0
  8 10  1  0
 10 11  1  0
 11 12  1  0
 12 13  1  0
 13 14  1  0
  6 15  2  0
 15  3  1  0
 14 10  1  0
M  END
>  <inchikey>  (1391) 
UNOBLKTXTMGBAZ-UHFFFAOYSA-N

>  <tags>  (1391) 
fragmenstein_placed,CpKRS_FrAncestor_bulkdock_iter2

>  <ref_pdb>  (1391) 
x0504a

>  <energy_score>  (1391) 
-31.205931

>  <distance_score>  (1391) 
0.573341

>  <HIPPO Pose ID>  (1391) 
60378

>  <ref_mols>  (1391) 
x0407a

>  <smiles>  (1391) 
CCn1cnc(NC(=O)C2CCCC2)c1

>  <HIPPO Compound ID>  (1391) 
451931

>  <alias>  (1391) 
UNOBLKTXTMGBAZ-UHFFFAOYSA-N-P4

>  <subsites>  (1391) 


>  <placement_batch>  (1391) 
CpKRS_FrAncestor_bulkdock_iter2

>  <name>  (1391) 
UNOBLKTXTMGBAZ-UHFFFAOYSA-N-P4

$$$$
KEVKYPJSBSZRLE-UHFFFAOYSA-N-P4
     RDKit          3D

 17 18  0  0  0  0  0  0  0  0999 V2000
    3.3022  -16.5495   28.9666 C   0  0  0  0  0  0  0  0  0  0  0  0
    2.6324  -16.7104   27.6153 C   0  0  0  0  0  0  0  0  0  0  0  0
    2.3497  -15.4287   27.0215 N   0  0  0  0  0  0  0  0  0  0  0  0
    1.1571  -14.7673   27.0907 C   0  0  0  0  0  0  0  0  0  0  0  0
    1.2252  -13.5859   26.5215 N   0  0  0  0  0  0  0  0  0  0  0  0
    2.5125  -13.5223   26.0625 C   0  0  0  0  0  0  0  0  0  0  0  0
    2.9612  -12.4185   25.4438 N   0  0  0  0  0  0  0  0  0  0  0  0
    4.3641  -12.0934   24.8448 C   0  0  0  0  0  0  0  0  0  0  0  0
    5.3593  -12.7075   24.8690 O   0  0  0  0  0  0  0  0  0  0  0  0
    4.2066  -10.7583   24.1213 C   0  0  1  0  0  0  0  0  0  0  0  0
    5.3707   -9.7783   24.1612 C   0  0  0  0  0  0  0  0  0  0  0  0
    5.2765   -8.9896   22.8526 C   0  0  0  0  0  0  0  0  0  0  0  0
    4.1485   -9.6363   22.0484 C   0  0  0  0  0  0  0  0  0  0  0  0
    4.0104  -11.0491   22.6338 C   0  0  0  0  0  0  0  0  0  0  0  0
    2.6498  -11.7064   22.4601 C   0  0  0  0  0  0  0  0  0  0  0  0
    5.0833  -11.9648   22.0219 C   0  0  0  0  0  0  0  0  0  0  0  0
    3.2291  -14.6515   26.3417 C   0  0  0  0  0  0  0  0  0  0  0  0
  1  2  1  0
  2  3  1  0
  3  4  1  0
  4  5  2  0
  5  6  1  0
  6  7  1  0
  7  8  1  0
  8  9  2  0
 10  8  1  1
 10 11  1  0
 11 12  1  0
 12 13  1  0
 13 14  1  0
 14 15  1  0
 14 16  1  0
  6 17  2  0
 17  3  1  0
 14 10  1  0
M  END
>  <inchikey>  (1392) 
KEVKYPJSBSZRLE-UHFFFAOYSA-N

>  <tags>  (1392) 
fragmenstein_placed,CpKRS_FrAncestor_bulkdock_iter2

>  <ref_pdb>  (1392) 
x0504a

>  <energy_score>  (1392) 
-35.785498

>  <distance_score>  (1392) 
0.783782

>  <HIPPO Pose ID>  (1392) 
60381

>  <ref_mols>  (1392) 
x0407a

>  <smiles>  (1392) 
CCn1cnc(NC(=O)C2CCCC2(C)C)c1

>  <HIPPO Compound ID>  (1392) 
451932

>  <alias>  (1392) 
KEVKYPJSBSZRLE-UHFFFAOYSA-N-P4

>  <subsites>  (1392) 


>  <placement_batch>  (1392) 
CpKRS_FrAncestor_bulkdock_iter2

>  <name>  (1392) 
KEVKYPJSBSZRLE-UHFFFAOYSA-N-P4

$$$$
SWLYVNGSYVQJEJ-UHFFFAOYSA-N-P11
     RDKit          3D

 15 16  0  0  0  0  0  0  0  0999 V2000
    0.8739  -14.9688   28.4453 C   0  0  0  0  0  0  0  0  0  0  0  0
    1.2654  -15.5653   27.1135 C   0  0  0  0  0  0  0  0  0  0  0  0
    1.9401  -14.5777   26.3184 N   0  0  0  0  0  0  0  0  0  0  0  0
    1.3262  -13.5511   25.6627 C   0  0  0  0  0  0  0  0  0  0  0  0
    2.2009  -12.7678   25.0849 N   0  0  0  0  0  0  0  0  0  0  0  0
    3.4372  -13.3656   25.3435 C   0  0  0  0  0  0  0  0  0  0  0  0
    4.6905  -12.8069   24.8497 C   0  0  0  0  0  0  0  0  0  0  0  0
    5.7138  -13.3519   24.9355 O   0  0  0  0  0  0  0  0  0  0  0  0
    4.3420  -11.4381   24.2641 N   0  0  0  0  0  0  0  0  0  0  0  0
    5.1513  -10.4948   23.5803 C   0  0  0  0  0  0  0  0  0  0  0  0
    5.1526  -10.7557   22.0838 C   0  0  0  0  0  0  0  0  0  0  0  0
    5.5173   -9.4125   21.4701 C   0  0  0  0  0  0  0  0  0  0  0  0
    5.3921   -8.3721   22.5786 C   0  0  0  0  0  0  0  0  0  0  0  0
    4.6407   -9.0706   23.6958 C   0  0  0  0  0  0  0  0  0  0  0  0
    3.2810  -14.4791   26.1356 C   0  0  0  0  0  0  0  0  0  0  0  0
  1  2  1  0
  2  3  1  0
  3  4  1  0
  4  5  2  0
  5  6  1  0
  6  7  1  0
  7  8  2  0
  7  9  1  0
  9 10  1  0
 10 11  1  0
 11 12  1  0
 12 13  1  0
 13 14  1  0
  6 15  2  0
 15  3  1  0
 14 10  1  0
M  END
>  <inchikey>  (1393) 
SWLYVNGSYVQJEJ-UHFFFAOYSA-N

>  <tags>  (1393) 
fragmenstein_placed,CpKRS_FrAncestor_bulkdock_iter2

>  <ref_pdb>  (1393) 
x0504a

>  <energy_score>  (1393) 
-1.298537

>  <distance_score>  (1393) 
0.980147

>  <HIPPO Pose ID>  (1393) 
60384

>  <ref_mols>  (1393) 
x0421a

>  <smiles>  (1393) 
CCn1cnc(C(=O)NC2CCCC2)c1

>  <HIPPO Compound ID>  (1393) 
451933

>  <alias>  (1393) 
SWLYVNGSYVQJEJ-UHFFFAOYSA-N-P11

>  <subsites>  (1393) 


>  <placement_batch>  (1393) 
CpKRS_FrAncestor_bulkdock_iter2

>  <name>  (1393) 
SWLYVNGSYVQJEJ-UHFFFAOYSA-N-P11

$$$$
LYLRPQQHUNZHDS-UHFFFAOYSA-N-P13
     RDKit          3D

 16 17  0  0  0  0  0  0  0  0999 V2000
    0.6164  -14.4493   27.9163 C   0  0  0  0  0  0  0  0  0  0  0  0
    1.0824  -15.1613   26.6705 C   0  0  0  0  0  0  0  0  0  0  0  0
    1.8237  -14.2734   25.8291 N   0  0  0  0  0  0  0  0  0  0  0  0
    1.2795  -13.2590   25.1017 C   0  0  0  0  0  0  0  0  0  0  0  0
    2.2156  -12.5097   24.5830 N   0  0  0  0  0  0  0  0  0  0  0  0
    3.4105  -13.1203   24.9534 C   0  0  0  0  0  0  0  0  0  0  0  0
    4.7002  -12.5601   24.5970 C   0  0  0  0  0  0  0  0  0  0  0  0
    5.7003  -13.1408   24.7011 O   0  0  0  0  0  0  0  0  0  0  0  0
    4.4186  -11.1641   24.0485 N   0  0  0  0  0  0  0  0  0  0  0  0
    5.3064  -10.1536   23.6008 C   0  0  1  0  0  0  0  0  0  0  0  0
    5.4270  -10.2278   22.0783 C   0  0  0  0  0  0  0  0  0  0  0  0
    5.3751   -8.7880   21.6033 C   0  0  0  0  0  0  0  0  0  0  0  0
    5.5804   -7.9478   22.8449 C   0  0  0  0  0  0  0  0  0  0  0  0
    4.8233   -8.7343   23.8985 C   0  0  2  0  0  0  0  0  0  0  0  0
    5.1305   -8.2313   25.2950 C   0  0  0  0  0  0  0  0  0  0  0  0
    3.1735  -14.2422   25.7102 C   0  0  0  0  0  0  0  0  0  0  0  0
  1  2  1  0
  2  3  1  0
  3  4  1  0
  4  5  2  0
  5  6  1  0
  6  7  1  0
  7  8  2  0
  7  9  1  0
 10  9  1  6
 10 11  1  0
 11 12  1  0
 12 13  1  0
 13 14  1  0
 14 15  1  1
  6 16  2  0
 16  3  1  0
 14 10  1  0
M  END
>  <inchikey>  (1394) 
LYLRPQQHUNZHDS-UHFFFAOYSA-N

>  <tags>  (1394) 
fragmenstein_placed,CpKRS_FrAncestor_bulkdock_iter2

>  <ref_pdb>  (1394) 
x0504a

>  <energy_score>  (1394) 
-3.104108

>  <distance_score>  (1394) 
0.985756

>  <HIPPO Pose ID>  (1394) 
60390

>  <ref_mols>  (1394) 
x0421c

>  <smiles>  (1394) 
CCn1cnc(C(=O)NC2CCCC2C)c1

>  <HIPPO Compound ID>  (1394) 
451934

>  <alias>  (1394) 
LYLRPQQHUNZHDS-UHFFFAOYSA-N-P13

>  <subsites>  (1394) 


>  <placement_batch>  (1394) 
CpKRS_FrAncestor_bulkdock_iter2

>  <name>  (1394) 
LYLRPQQHUNZHDS-UHFFFAOYSA-N-P13

$$$$
PSEXAUYQOHFLRB-UHFFFAOYSA-N-P13
     RDKit          3D

 19 20  0  0  0  0  0  0  0  0999 V2000
    0.3451  -14.8281   28.0582 C   0  0  0  0  0  0  0  0  0  0  0  0
    1.7576  -15.1358   27.6438 C   0  0  0  0  0  0  0  0  0  0  0  0
    2.1999  -14.3677   26.5198 N   0  0  0  0  0  0  0  0  0  0  0  0
    1.4930  -13.4437   25.8109 C   0  0  0  0  0  0  0  0  0  0  0  0
    2.2698  -12.7766   24.9994 N   0  0  0  0  0  0  0  0  0  0  0  0
    3.5237  -13.3443   25.1739 C   0  0  0  0  0  0  0  0  0  0  0  0
    4.7032  -12.8271   24.5209 C   0  0  0  0  0  0  0  0  0  0  0  0
    5.7008  -13.4172   24.4589 O   0  0  0  0  0  0  0  0  0  0  0  0
    4.3215  -11.4664   23.9479 N   0  0  0  0  0  0  0  0  0  0  0  0
    5.0413  -10.5905   23.1070 C   0  0  1  0  0  0  0  0  0  0  0  0
    4.7058  -10.9149   21.6835 C   0  0  0  0  0  0  0  0  0  0  0  0
    5.2354   -9.7090   20.9596 C   0  0  0  0  0  0  0  0  0  0  0  0
    5.3932   -8.5786   21.9499 C   0  0  0  0  0  0  0  0  0  0  0  0
    4.7183   -9.0864   23.2032 C   0  0  2  0  0  0  0  0  0  0  0  0
    5.1604   -8.3478   24.4801 C   0  0  0  0  0  0  0  0  0  0  0  0
    3.9583   -8.3506   25.4354 C   0  0  0  0  0  0  0  0  0  0  0  0
    5.6281   -6.8962   24.2818 C   0  0  0  0  0  0  0  0  0  0  0  0
    6.3426   -9.0393   25.1190 C   0  0  0  0  0  0  0  0  0  0  0  0
    3.4775  -14.3856   26.0657 C   0  0  0  0  0  0  0  0  0  0  0  0
  1  2  1  0
  2  3  1  0
  3  4  1  0
  4  5  2  0
  5  6  1  0
  6  7  1  0
  7  8  2  0
  7  9  1  0
 10  9  1  1
 10 11  1  0
 11 12  1  0
 12 13  1  0
 13 14  1  0
 14 15  1  1
 15 16  1  0
 15 17  1  0
 15 18  1  0
  6 19  2  0
 19  3  1  0
 14 10  1  0
M  END
>  <inchikey>  (1395) 
PSEXAUYQOHFLRB-UHFFFAOYSA-N

>  <tags>  (1395) 
fragmenstein_placed,CpKRS_FrAncestor_bulkdock_iter2

>  <ref_pdb>  (1395) 
x0504a

>  <energy_score>  (1395) 
-5.109927

>  <distance_score>  (1395) 
0.930348

>  <HIPPO Pose ID>  (1395) 
60398

>  <ref_mols>  (1395) 
x0421c

>  <smiles>  (1395) 
CCn1cnc(C(=O)NC2CCCC2C(C)(C)C)c1

>  <HIPPO Compound ID>  (1395) 
409521

>  <alias>  (1395) 
PSEXAUYQOHFLRB-UHFFFAOYSA-N-P13

>  <subsites>  (1395) 


>  <placement_batch>  (1395) 
CpKRS_FrAncestor_bulkdock_iter2

>  <name>  (1395) 
PSEXAUYQOHFLRB-UHFFFAOYSA-N-P13

$$$$
GOWRHTJLWNNXAF-UHFFFAOYSA-N-P13
     RDKit          3D

 17 18  0  0  0  0  0  0  0  0999 V2000
    0.3325  -14.8304   27.9582 C   0  0  0  0  0  0  0  0  0  0  0  0
    1.7109  -15.1714   27.4608 C   0  0  0  0  0  0  0  0  0  0  0  0
    2.1527  -14.3205   26.3981 N   0  0  0  0  0  0  0  0  0  0  0  0
    1.4450  -13.3508   25.7543 C   0  0  0  0  0  0  0  0  0  0  0  0
    2.2352  -12.5799   25.0545 N   0  0  0  0  0  0  0  0  0  0  0  0
    3.4903  -13.1468   25.2025 C   0  0  0  0  0  0  0  0  0  0  0  0
    4.6901  -12.5418   24.6771 C   0  0  0  0  0  0  0  0  0  0  0  0
    5.6837  -13.1309   24.5621 O   0  0  0  0  0  0  0  0  0  0  0  0
    4.3552  -11.0900   24.3430 N   0  0  0  0  0  0  0  0  0  0  0  0
    5.1307  -10.0908   23.7175 C   0  0  1  0  0  0  0  0  0  0  0  0
    4.8377  -10.1195   22.2265 C   0  0  2  0  0  0  0  0  0  0  0  0
    5.2212  -11.4169   21.5620 C   0  0  0  0  0  0  0  0  0  0  0  0
    5.5748   -8.8914   21.7262 C   0  0  0  0  0  0  0  0  0  0  0  0
    5.6048   -7.9346   22.9210 C   0  0  0  0  0  0  0  0  0  0  0  0
    4.8296   -8.6370   24.0426 C   0  0  2  0  0  0  0  0  0  0  0  0
    5.2776   -8.1763   25.4122 C   0  0  0  0  0  0  0  0  0  0  0  0
    3.4376  -14.2824   25.9707 C   0  0  0  0  0  0  0  0  0  0  0  0
  1  2  1  0
  2  3  1  0
  3  4  1  0
  4  5  2  0
  5  6  1  0
  6  7  1  0
  7  8  2  0
  7  9  1  0
 10  9  1  1
 10 11  1  0
 11 12  1  6
 11 13  1  0
 13 14  1  0
 14 15  1  0
 15 16  1  1
  6 17  2  0
 17  3  1  0
 15 10  1  0
M  END
>  <inchikey>  (1396) 
GOWRHTJLWNNXAF-UHFFFAOYSA-N

>  <tags>  (1396) 
fragmenstein_placed,CpKRS_FrAncestor_bulkdock_iter2

>  <ref_pdb>  (1396) 
x0504a

>  <energy_score>  (1396) 
-11.592758

>  <distance_score>  (1396) 
0.928527

>  <HIPPO Pose ID>  (1396) 
60406

>  <ref_mols>  (1396) 
x0421c

>  <smiles>  (1396) 
CCn1cnc(C(=O)NC2C(C)CCC2C)c1

>  <HIPPO Compound ID>  (1396) 
451936

>  <alias>  (1396) 
GOWRHTJLWNNXAF-UHFFFAOYSA-N-P13

>  <subsites>  (1396) 


>  <placement_batch>  (1396) 
CpKRS_FrAncestor_bulkdock_iter2

>  <name>  (1396) 
GOWRHTJLWNNXAF-UHFFFAOYSA-N-P13

$$$$
ZRNQVVJRSNQTNR-NSHDSACASA-N-P12
     RDKit          3D

 17 18  0  0  0  0  0  0  0  0999 V2000
   -0.9545  -13.0045   26.9865 C   0  0  0  0  0  0  0  0  0  0  0  0
   -0.2488  -13.9966   26.0925 C   0  0  0  0  0  0  0  0  0  0  0  0
    1.1933  -13.9230   26.1184 N   0  0  0  0  0  0  0  0  0  0  0  0
    2.0235  -14.6596   26.9102 C   0  0  0  0  0  0  0  0  0  0  0  0
    3.2798  -14.5056   26.5615 N   0  0  0  0  0  0  0  0  0  0  0  0
    3.2779  -13.5854   25.5283 C   0  0  0  0  0  0  0  0  0  0  0  0
    4.5079  -13.1017   24.8604 C   0  0  0  0  0  0  0  0  0  0  0  0
    5.4486  -13.7835   24.7699 O   0  0  0  0  0  0  0  0  0  0  0  0
    4.2668  -11.6607   24.3659 N   0  0  0  0  0  0  0  0  0  0  0  0
    5.0958  -10.7952   23.5770 C   0  0  1  0  0  0  0  0  0  0  0  0
    4.7465  -10.9423   22.0900 C   0  0  0  0  0  0  0  0  0  0  0  0
    4.7196   -9.5330   21.5187 C   0  0  0  0  0  0  0  0  0  0  0  0
    5.4325   -8.6724   22.5357 C   0  0  0  0  0  0  0  0  0  0  0  0
    5.0247   -9.2816   23.8854 C   0  0  0  0  0  0  0  0  0  0  0  0
    6.0168   -8.7975   24.9426 C   0  0  0  0  0  0  0  0  0  0  0  0
    3.6236   -8.8449   24.3153 C   0  0  0  0  0  0  0  0  0  0  0  0
    1.9698  -13.2307   25.2341 C   0  0  0  0  0  0  0  0  0  0  0  0
  1  2  1  0
  2  3  1  0
  3  4  1  0
  4  5  2  0
  5  6  1  0
  6  7  1  0
  7  8  2  0
  7  9  1  0
 10  9  1  1
 10 11  1  0
 11 12  1  0
 12 13  1  0
 13 14  1  0
 14 15  1  0
 14 16  1  0
  6 17  2  0
 17  3  1  0
 14 10  1  0
M  END
>  <inchikey>  (1397) 
ZRNQVVJRSNQTNR-UHFFFAOYSA-N

>  <tags>  (1397) 
fragmenstein_placed,CpKRS_FrAncestor_bulkdock_iter2

>  <ref_pdb>  (1397) 
x0504a

>  <energy_score>  (1397) 
-4.045182

>  <distance_score>  (1397) 
0.334566

>  <HIPPO Pose ID>  (1397) 
60421

>  <ref_mols>  (1397) 
x0421b

>  <smiles>  (1397) 
CCn1cnc(C(=O)N[C@H]2CCCC2(C)C)c1

>  <HIPPO Compound ID>  (1397) 
164967

>  <alias>  (1397) 
ZRNQVVJRSNQTNR-NSHDSACASA-N-P12

>  <subsites>  (1397) 


>  <placement_batch>  (1397) 
CpKRS_FrAncestor_bulkdock_iter2

>  <name>  (1397) 
ZRNQVVJRSNQTNR-NSHDSACASA-N-P12

$$$$
IMZPGOCGRNKJSH-IUCAKERBSA-N-P13
     RDKit          3D

 16 17  0  0  0  0  0  0  0  0999 V2000
   -0.8866  -14.3315   25.4470 C   0  0  0  0  0  0  0  0  0  0  0  0
    0.0561  -14.2225   26.6343 C   0  0  0  0  0  0  0  0  0  0  0  0
    1.4478  -14.2972   26.2646 N   0  0  0  0  0  0  0  0  0  0  0  0
    2.3538  -15.2138   26.7009 C   0  0  0  0  0  0  0  0  0  0  0  0
    3.5357  -14.9956   26.1764 N   0  0  0  0  0  0  0  0  0  0  0  0
    3.4041  -13.8681   25.3842 C   0  0  0  0  0  0  0  0  0  0  0  0
    4.5263  -13.2584   24.6375 C   0  0  0  0  0  0  0  0  0  0  0  0
    5.4573  -13.8904   24.3387 O   0  0  0  0  0  0  0  0  0  0  0  0
    4.2038  -11.7733   24.3822 N   0  0  0  0  0  0  0  0  0  0  0  0
    4.9928  -10.7431   23.7951 C   0  0  1  0  0  0  0  0  0  0  0  0
    5.2526  -10.9393   22.3095 C   0  0  0  0  0  0  0  0  0  0  0  0
    5.6248   -9.5423   21.8113 C   0  0  0  0  0  0  0  0  0  0  0  0
    5.1468   -8.5638   22.8883 C   0  0  2  0  0  0  0  0  0  0  0  0
    6.4854   -7.8542   23.8197 Cl  0  0  0  0  0  0  0  0  0  0  0  0
    4.2926   -9.3931   23.8292 C   0  0  0  0  0  0  0  0  0  0  0  0
    2.0878  -13.4362   25.4246 C   0  0  0  0  0  0  0  0  0  0  0  0
  1  2  1  0
  2  3  1  0
  3  4  1  0
  4  5  2  0
  5  6  1  0
  6  7  1  0
  7  8  2  0
  7  9  1  0
 10  9  1  6
 10 11  1  0
 11 12  1  0
 12 13  1  0
 13 14  1  1
 13 15  1  0
  6 16  2  0
 16  3  1  0
 15 10  1  0
M  END
>  <inchikey>  (1398) 
IMZPGOCGRNKJSH-UHFFFAOYSA-N

>  <tags>  (1398) 
fragmenstein_placed,CpKRS_FrAncestor_bulkdock_iter2

>  <ref_pdb>  (1398) 
x0504a

>  <energy_score>  (1398) 
-0.899186

>  <distance_score>  (1398) 
0.336092

>  <HIPPO Pose ID>  (1398) 
60442

>  <ref_mols>  (1398) 
x0421c

>  <smiles>  (1398) 
CCn1cnc(C(=O)N[C@H]2CC[C@H](Cl)C2)c1

>  <HIPPO Compound ID>  (1398) 
451938

>  <alias>  (1398) 
IMZPGOCGRNKJSH-IUCAKERBSA-N-P13

>  <subsites>  (1398) 


>  <placement_batch>  (1398) 
CpKRS_FrAncestor_bulkdock_iter2

>  <name>  (1398) 
IMZPGOCGRNKJSH-IUCAKERBSA-N-P13

$$$$
KOBAFLOQANLELR-UHFFFAOYSA-N-P14
     RDKit          3D

 16 17  0  0  0  0  0  0  0  0999 V2000
    0.5432  -11.2481   24.3569 C   0  0  0  0  0  0  0  0  0  0  0  0
    1.2073  -12.5988   24.1451 C   0  0  0  0  0  0  0  0  0  0  0  0
    1.8281  -13.1248   25.3526 N   0  0  0  0  0  0  0  0  0  0  0  0
    1.0132  -13.5406   26.3574 N   0  0  0  0  0  0  0  0  0  0  0  0
    1.8088  -14.3345   27.0803 C   0  0  0  0  0  0  0  0  0  0  0  0
    3.1111  -14.3657   26.5716 C   0  0  0  0  0  0  0  0  0  0  0  0
    4.4391  -15.5187   27.2020 Br  0  0  0  0  0  0  0  0  0  0  0  0
    3.1580  -13.4361   25.5523 C   0  0  0  0  0  0  0  0  0  0  0  0
    4.3061  -12.9894   24.7745 C   0  0  0  0  0  0  0  0  0  0  0  0
    5.1890  -13.7121   24.5515 O   0  0  0  0  0  0  0  0  0  0  0  0
    4.1238  -11.5029   24.4274 N   0  0  0  0  0  0  0  0  0  0  0  0
    4.9434  -10.6222   23.6547 C   0  0  0  0  0  0  0  0  0  0  0  0
    4.7850  -10.8365   22.1571 C   0  0  0  0  0  0  0  0  0  0  0  0
    5.2756   -9.5321   21.5381 C   0  0  0  0  0  0  0  0  0  0  0  0
    5.2775   -8.4911   22.6556 C   0  0  0  0  0  0  0  0  0  0  0  0
    4.5855   -9.1560   23.8336 C   0  0  0  0  0  0  0  0  0  0  0  0
  1  2  1  0
  2  3  1  0
  3  4  1  0
  4  5  2  0
  5  6  1  0
  6  7  1  0
  6  8  2  0
  8  9  1  0
  9 10  2  0
  9 11  1  0
 11 12  1  0
 12 13  1  0
 13 14  1  0
 14 15  1  0
 15 16  1  0
  8  3  1  0
 16 12  1  0
M  END
>  <inchikey>  (1399) 
KOBAFLOQANLELR-UHFFFAOYSA-N

>  <tags>  (1399) 
fragmenstein_placed,CpKRS_FrAncestor_bulkdock_iter2

>  <ref_pdb>  (1399) 
x0504a

>  <energy_score>  (1399) 
-10.717674

>  <distance_score>  (1399) 
0.337775

>  <HIPPO Pose ID>  (1399) 
60451

>  <ref_mols>  (1399) 
x0421d

>  <smiles>  (1399) 
CCn1ncc(Br)c1C(=O)NC1CCCC1

>  <HIPPO Compound ID>  (1399) 
451940

>  <alias>  (1399) 
KOBAFLOQANLELR-UHFFFAOYSA-N-P14

>  <subsites>  (1399) 


>  <placement_batch>  (1399) 
CpKRS_FrAncestor_bulkdock_iter2

>  <name>  (1399) 
KOBAFLOQANLELR-UHFFFAOYSA-N-P14

$$$$
RKGAMTQZECOJOR-UHFFFAOYSA-N-P13
     RDKit          3D

 16 17  0  0  0  0  0  0  0  0999 V2000
   -0.7971  -14.5229   25.6244 C   0  0  0  0  0  0  0  0  0  0  0  0
    0.1870  -14.2636   26.7545 C   0  0  0  0  0  0  0  0  0  0  0  0
    1.5568  -14.2302   26.2912 N   0  0  0  0  0  0  0  0  0  0  0  0
    2.3419  -15.2935   26.5266 N   0  0  0  0  0  0  0  0  0  0  0  0
    3.4918  -14.9582   25.9376 C   0  0  0  0  0  0  0  0  0  0  0  0
    3.4540  -13.6817   25.3149 C   0  0  0  0  0  0  0  0  0  0  0  0
    4.5705  -13.0906   24.5756 C   0  0  0  0  0  0  0  0  0  0  0  0
    5.4486  -13.7798   24.2507 O   0  0  0  0  0  0  0  0  0  0  0  0
    4.3484  -11.5910   24.3493 N   0  0  0  0  0  0  0  0  0  0  0  0
    5.1982  -10.6055   23.7607 C   0  0  0  0  0  0  0  0  0  0  0  0
    4.7763   -9.1748   24.0570 C   0  0  0  0  0  0  0  0  0  0  0  0
    5.5666   -8.3889   23.0254 C   0  0  0  0  0  0  0  0  0  0  0  0
    5.5709   -9.2715   21.7802 C   0  0  0  0  0  0  0  0  0  0  0  0
    5.1753  -10.6714   22.2392 C   0  0  0  0  0  0  0  0  0  0  0  0
    2.1665  -13.2433   25.5684 C   0  0  0  0  0  0  0  0  0  0  0  0
    1.3201  -11.6279   24.9947 Br  0  0  0  0  0  0  0  0  0  0  0  0
  1  2  1  0
  2  3  1  0
  3  4  1  0
  4  5  2  0
  5  6  1  0
  6  7  1  0
  7  8  2  0
  7  9  1  0
  9 10  1  0
 10 11  1  0
 11 12  1  0
 12 13  1  0
 13 14  1  0
  6 15  2  0
 15 16  1  0
 15  3  1  0
 14 10  1  0
M  END
>  <inchikey>  (1400) 
RKGAMTQZECOJOR-UHFFFAOYSA-N

>  <tags>  (1400) 
fragmenstein_placed,CpKRS_FrAncestor_bulkdock_iter2

>  <ref_pdb>  (1400) 
x0504a

>  <energy_score>  (1400) 
-7.321195

>  <distance_score>  (1400) 
0.413831

>  <HIPPO Pose ID>  (1400) 
60463

>  <ref_mols>  (1400) 
x0421c

>  <smiles>  (1400) 
CCn1ncc(C(=O)NC2CCCC2)c1Br

>  <HIPPO Compound ID>  (1400) 
451943

>  <alias>  (1400) 
RKGAMTQZECOJOR-UHFFFAOYSA-N-P13

>  <subsites>  (1400) 


>  <placement_batch>  (1400) 
CpKRS_FrAncestor_bulkdock_iter2

>  <name>  (1400) 
RKGAMTQZECOJOR-UHFFFAOYSA-N-P13

$$$$
LGRPOQFIQPUYTJ-UHFFFAOYSA-N-P12
     RDKit          3D

 16 17  0  0  0  0  0  0  0  0999 V2000
   -1.1346  -14.0638   25.9807 C   0  0  0  0  0  0  0  0  0  0  0  0
    0.0027  -13.7106   26.9153 C   0  0  0  0  0  0  0  0  0  0  0  0
    1.3229  -13.9505   26.3666 N   0  0  0  0  0  0  0  0  0  0  0  0
    2.0947  -14.9032   26.9351 N   0  0  0  0  0  0  0  0  0  0  0  0
    3.2940  -14.7108   26.3744 C   0  0  0  0  0  0  0  0  0  0  0  0
    3.3051  -13.6502   25.4377 C   0  0  0  0  0  0  0  0  0  0  0  0
    4.4619  -13.1173   24.7294 C   0  0  0  0  0  0  0  0  0  0  0  0
    5.4088  -13.7797   24.5909 O   0  0  0  0  0  0  0  0  0  0  0  0
    4.2134  -11.6436   24.3623 N   0  0  0  0  0  0  0  0  0  0  0  0
    5.0391  -10.7090   23.6669 C   0  0  0  0  0  0  0  0  0  0  0  0
    4.7930   -9.2615   24.0663 C   0  0  0  0  0  0  0  0  0  0  0  0
    5.5042   -8.4952   22.9642 C   0  0  0  0  0  0  0  0  0  0  0  0
    5.3231   -9.3421   21.7063 C   0  0  0  0  0  0  0  0  0  0  0  0
    4.7944  -10.6988   22.1663 C   0  0  0  0  0  0  0  0  0  0  0  0
    1.9829  -13.2759   25.3819 C   0  0  0  0  0  0  0  0  0  0  0  0
    1.1625  -12.2147   24.3282 Cl  0  0  0  0  0  0  0  0  0  0  0  0
  1  2  1  0
  2  3  1  0
  3  4  1  0
  4  5  2  0
  5  6  1  0
  6  7  1  0
  7  8  2  0
  7  9  1  0
  9 10  1  0
 10 11  1  0
 11 12  1  0
 12 13  1  0
 13 14  1  0
  6 15  2  0
 15 16  1  0
 15  3  1  0
 14 10  1  0
M  END
>  <inchikey>  (1401) 
LGRPOQFIQPUYTJ-UHFFFAOYSA-N

>  <tags>  (1401) 
fragmenstein_placed,CpKRS_FrAncestor_bulkdock_iter2

>  <ref_pdb>  (1401) 
x0504a

>  <energy_score>  (1401) 
-5.406548

>  <distance_score>  (1401) 
0.428414

>  <HIPPO Pose ID>  (1401) 
60466

>  <ref_mols>  (1401) 
x0421b

>  <smiles>  (1401) 
CCn1ncc(C(=O)NC2CCCC2)c1Cl

>  <HIPPO Compound ID>  (1401) 
451944

>  <alias>  (1401) 
LGRPOQFIQPUYTJ-UHFFFAOYSA-N-P12

>  <subsites>  (1401) 


>  <placement_batch>  (1401) 
CpKRS_FrAncestor_bulkdock_iter2

>  <name>  (1401) 
LGRPOQFIQPUYTJ-UHFFFAOYSA-N-P12

$$$$
YSDYCLIODNTBRX-UHFFFAOYSA-N-P12
     RDKit          3D

 16 17  0  0  0  0  0  0  0  0999 V2000
    0.8603  -14.2670   28.9813 C   0  0  0  0  0  0  0  0  0  0  0  0
    0.5353  -14.0231   27.5127 C   0  0  0  0  0  0  0  0  0  0  0  0
    1.6710  -14.2335   26.6328 N   0  0  0  0  0  0  0  0  0  0  0  0
    2.5448  -15.2146   26.9185 N   0  0  0  0  0  0  0  0  0  0  0  0
    3.5591  -14.9865   26.0843 C   0  0  0  0  0  0  0  0  0  0  0  0
    3.3234  -13.8883   25.2330 C   0  0  0  0  0  0  0  0  0  0  0  0
    4.2595  -13.3324   24.2637 C   0  0  0  0  0  0  0  0  0  0  0  0
    4.9513  -14.0325   23.6438 O   0  0  0  0  0  0  0  0  0  0  0  0
    4.1769  -11.7976   24.3081 N   0  0  0  0  0  0  0  0  0  0  0  0
    4.9880  -10.8047   23.6733 C   0  0  0  0  0  0  0  0  0  0  0  0
    4.6879   -9.3727   24.0912 C   0  0  0  0  0  0  0  0  0  0  0  0
    5.4387   -8.5693   23.0405 C   0  0  0  0  0  0  0  0  0  0  0  0
    5.3027   -9.3769   21.7518 C   0  0  0  0  0  0  0  0  0  0  0  0
    4.8100  -10.7638   22.1616 C   0  0  0  0  0  0  0  0  0  0  0  0
    2.0027  -13.5387   25.4933 C   0  0  0  0  0  0  0  0  0  0  0  0
    1.0486  -12.7003   24.7239 C   0  0  0  0  0  0  0  0  0  0  0  0
  1  2  1  0
  2  3  1  0
  3  4  1  0
  4  5  2  0
  5  6  1  0
  6  7  1  0
  7  8  2  0
  7  9  1  0
  9 10  1  0
 10 11  1  0
 11 12  1  0
 12 13  1  0
 13 14  1  0
  6 15  2  0
 15 16  1  0
 15  3  1  0
 14 10  1  0
M  END
>  <inchikey>  (1402) 
YSDYCLIODNTBRX-UHFFFAOYSA-N

>  <tags>  (1402) 
fragmenstein_placed,CpKRS_FrAncestor_bulkdock_iter2

>  <ref_pdb>  (1402) 
x0504a

>  <energy_score>  (1402) 
-12.891585

>  <distance_score>  (1402) 
0.634862

>  <HIPPO Pose ID>  (1402) 
60470

>  <ref_mols>  (1402) 
x0421b

>  <smiles>  (1402) 
CCn1ncc(C(=O)NC2CCCC2)c1C

>  <HIPPO Compound ID>  (1402) 
451945

>  <alias>  (1402) 
YSDYCLIODNTBRX-UHFFFAOYSA-N-P12

>  <subsites>  (1402) 


>  <placement_batch>  (1402) 
CpKRS_FrAncestor_bulkdock_iter2

>  <name>  (1402) 
YSDYCLIODNTBRX-UHFFFAOYSA-N-P12

$$$$
HNYTXLMCCXXYDB-UHFFFAOYSA-N-P12
     RDKit          3D

 16 17  0  0  0  0  0  0  0  0999 V2000
   -1.0416  -13.9208   25.9309 C   0  0  0  0  0  0  0  0  0  0  0  0
    0.0417  -13.7728   26.9781 C   0  0  0  0  0  0  0  0  0  0  0  0
    1.3715  -13.9919   26.4557 N   0  0  0  0  0  0  0  0  0  0  0  0
    2.0869  -15.0652   26.8424 N   0  0  0  0  0  0  0  0  0  0  0  0
    3.2727  -14.8728   26.2501 C   0  0  0  0  0  0  0  0  0  0  0  0
    3.3218  -13.6897   25.4715 C   0  0  0  0  0  0  0  0  0  0  0  0
    4.4620  -13.1480   24.7432 C   0  0  0  0  0  0  0  0  0  0  0  0
    5.4265  -13.7911   24.6355 O   0  0  0  0  0  0  0  0  0  0  0  0
    4.1604  -11.7145   24.2685 N   0  0  0  0  0  0  0  0  0  0  0  0
    5.0077  -10.7439   23.6496 C   0  0  0  0  0  0  0  0  0  0  0  0
    4.7266   -9.3091   24.0713 C   0  0  0  0  0  0  0  0  0  0  0  0
    5.4891   -8.5117   23.0259 C   0  0  0  0  0  0  0  0  0  0  0  0
    5.3551   -9.3177   21.7360 C   0  0  0  0  0  0  0  0  0  0  0  0
    4.8396  -10.6976   22.1383 C   0  0  0  0  0  0  0  0  0  0  0  0
    2.0466  -13.1919   25.5890 C   0  0  0  0  0  0  0  0  0  0  0  0
    1.5613  -12.1086   24.9664 F   0  0  0  0  0  0  0  0  0  0  0  0
  1  2  1  0
  2  3  1  0
  3  4  1  0
  4  5  2  0
  5  6  1  0
  6  7  1  0
  7  8  2  0
  7  9  1  0
  9 10  1  0
 10 11  1  0
 11 12  1  0
 12 13  1  0
 13 14  1  0
  6 15  2  0
 15 16  1  0
 15  3  1  0
 14 10  1  0
M  END
>  <inchikey>  (1403) 
HNYTXLMCCXXYDB-UHFFFAOYSA-N

>  <tags>  (1403) 
fragmenstein_placed,CpKRS_FrAncestor_bulkdock_iter2

>  <ref_pdb>  (1403) 
x0504a

>  <energy_score>  (1403) 
-0.054899

>  <distance_score>  (1403) 
0.461549

>  <HIPPO Pose ID>  (1403) 
60474

>  <ref_mols>  (1403) 
x0421b

>  <smiles>  (1403) 
CCn1ncc(C(=O)NC2CCCC2)c1F

>  <HIPPO Compound ID>  (1403) 
451946

>  <alias>  (1403) 
HNYTXLMCCXXYDB-UHFFFAOYSA-N-P12

>  <subsites>  (1403) 


>  <placement_batch>  (1403) 
CpKRS_FrAncestor_bulkdock_iter2

>  <name>  (1403) 
HNYTXLMCCXXYDB-UHFFFAOYSA-N-P12

$$$$
DGOVJZFMWYCCQW-UHFFFAOYSA-N-P12
     RDKit          3D

 17 18  0  0  0  0  0  0  0  0999 V2000
    0.7488  -14.1354   28.8593 C   0  0  0  0  0  0  0  0  0  0  0  0
    0.4727  -13.9819   27.3684 C   0  0  0  0  0  0  0  0  0  0  0  0
    1.6586  -14.2098   26.5643 N   0  0  0  0  0  0  0  0  0  0  0  0
    2.5084  -15.2011   26.9125 N   0  0  0  0  0  0  0  0  0  0  0  0
    3.6279  -14.8897   26.2527 C   0  0  0  0  0  0  0  0  0  0  0  0
    3.4854  -13.7442   25.4334 C   0  0  0  0  0  0  0  0  0  0  0  0
    4.5365  -13.0918   24.6751 C   0  0  0  0  0  0  0  0  0  0  0  0
    5.4564  -13.7206   24.3379 O   0  0  0  0  0  0  0  0  0  0  0  0
    4.2550  -11.5822   24.5402 N   0  0  0  0  0  0  0  0  0  0  0  0
    4.9997  -10.5539   23.8823 C   0  0  2  0  0  0  0  0  0  0  0  0
    4.8616   -9.1462   24.4386 C   0  0  0  0  0  0  0  0  0  0  0  0
    5.5409   -8.3076   23.3577 C   0  0  0  0  0  0  0  0  0  0  0  0
    5.3041   -9.0536   22.0419 C   0  0  0  0  0  0  0  0  0  0  0  0
    4.5932  -10.3529   22.4316 C   0  0  1  0  0  0  0  0  0  0  0  0
    4.9675  -11.5301   21.5675 C   0  0  0  0  0  0  0  0  0  0  0  0
    2.1476  -13.4572   25.5364 C   0  0  0  0  0  0  0  0  0  0  0  0
    1.1417  -12.4362   24.6214 Cl  0  0  0  0  0  0  0  0  0  0  0  0
  1  2  1  0
  2  3  1  0
  3  4  1  0
  4  5  2  0
  5  6  1  0
  6  7  1  0
  7  8  2  0
  7  9  1  0
 10  9  1  1
 10 11  1  0
 11 12  1  0
 12 13  1  0
 13 14  1  0
 14 15  1  6
  6 16  2  0
 16 17  1  0
 16  3  1  0
 14 10  1  0
M  END
>  <inchikey>  (1404) 
DGOVJZFMWYCCQW-UHFFFAOYSA-N

>  <tags>  (1404) 
fragmenstein_placed,CpKRS_FrAncestor_bulkdock_iter2

>  <ref_pdb>  (1404) 
x0504a

>  <energy_score>  (1404) 
-6.651364

>  <distance_score>  (1404) 
0.531716

>  <HIPPO Pose ID>  (1404) 
60478

>  <ref_mols>  (1404) 
x0421b

>  <smiles>  (1404) 
CCn1ncc(C(=O)NC2CCCC2C)c1Cl

>  <HIPPO Compound ID>  (1404) 
225097

>  <alias>  (1404) 
DGOVJZFMWYCCQW-UHFFFAOYSA-N-P12

>  <subsites>  (1404) 


>  <placement_batch>  (1404) 
CpKRS_FrAncestor_bulkdock_iter2

>  <name>  (1404) 
DGOVJZFMWYCCQW-UHFFFAOYSA-N-P12

$$$$
NHEFDBZNKDOGJF-UHFFFAOYSA-N-P14
     RDKit          3D

 18 19  0  0  0  0  0  0  0  0999 V2000
    1.7620  -15.8122   28.8595 C   0  0  0  0  0  0  0  0  0  0  0  0
    1.6007  -14.3791   28.4578 C   0  0  0  0  0  0  0  0  0  0  0  0
    1.9799  -14.0992   27.0949 N   0  0  0  0  0  0  0  0  0  0  0  0
    1.0886  -13.4126   26.3338 N   0  0  0  0  0  0  0  0  0  0  0  0
    1.8482  -12.9896   25.3179 C   0  0  0  0  0  0  0  0  0  0  0  0
    3.2080  -13.3829   25.4207 C   0  0  0  0  0  0  0  0  0  0  0  0
    4.3870  -12.9749   24.6609 C   0  0  0  0  0  0  0  0  0  0  0  0
    5.3581  -13.6136   24.6650 O   0  0  0  0  0  0  0  0  0  0  0  0
    4.0988  -11.6074   24.0274 N   0  0  0  0  0  0  0  0  0  0  0  0
    4.9665  -10.6972   23.3488 C   0  0  1  0  0  0  0  0  0  0  0  0
    4.8572  -10.9030   21.8499 C   0  0  0  0  0  0  0  0  0  0  0  0
    5.3008   -9.5756   21.2853 C   0  0  0  0  0  0  0  0  0  0  0  0
    4.6579   -8.5519   22.1993 C   0  0  0  0  0  0  0  0  0  0  0  0
    4.6654   -9.1895   23.6037 C   0  0  0  0  0  0  0  0  0  0  0  0
    5.7785   -8.5478   24.4455 C   0  0  0  0  0  0  0  0  0  0  0  0
    3.3227   -8.9348   24.3033 C   0  0  0  0  0  0  0  0  0  0  0  0
    3.1883  -14.2554   26.4822 C   0  0  0  0  0  0  0  0  0  0  0  0
    4.3766  -15.3246   27.0751 Cl  0  0  0  0  0  0  0  0  0  0  0  0
  1  2  1  0
  2  3  1  0
  3  4  1  0
  4  5  2  0
  5  6  1  0
  6  7  1  0
  7  8  2  0
  7  9  1  0
 10  9  1  1
 10 11  1  0
 11 12  1  0
 12 13  1  0
 13 14  1  0
 14 15  1  0
 14 16  1  0
  6 17  2  0
 17 18  1  0
 17  3  1  0
 14 10  1  0
M  END
>  <inchikey>  (1405) 
NHEFDBZNKDOGJF-UHFFFAOYSA-N

>  <tags>  (1405) 
fragmenstein_placed,CpKRS_FrAncestor_bulkdock_iter2

>  <ref_pdb>  (1405) 
x0504a

>  <energy_score>  (1405) 
-8.329741

>  <distance_score>  (1405) 
0.458578

>  <HIPPO Pose ID>  (1405) 
60488

>  <ref_mols>  (1405) 
x0421d

>  <smiles>  (1405) 
CCn1ncc(C(=O)NC2CCCC2(C)C)c1Cl

>  <HIPPO Compound ID>  (1405) 
340289

>  <alias>  (1405) 
NHEFDBZNKDOGJF-UHFFFAOYSA-N-P14

>  <subsites>  (1405) 


>  <placement_batch>  (1405) 
CpKRS_FrAncestor_bulkdock_iter2

>  <name>  (1405) 
NHEFDBZNKDOGJF-UHFFFAOYSA-N-P14

$$$$
OOVBXMRKSLTQID-UHFFFAOYSA-N-P14
     RDKit          3D

 18 19  0  0  0  0  0  0  0  0999 V2000
    1.3222  -14.8482   29.4694 C   0  0  0  0  0  0  0  0  0  0  0  0
    2.0056  -15.5684   28.3251 C   0  0  0  0  0  0  0  0  0  0  0  0
    2.3865  -14.6863   27.2435 N   0  0  0  0  0  0  0  0  0  0  0  0
    1.4381  -13.9054   26.6777 N   0  0  0  0  0  0  0  0  0  0  0  0
    2.1144  -13.2634   25.7233 C   0  0  0  0  0  0  0  0  0  0  0  0
    3.4852  -13.6164   25.6620 C   0  0  0  0  0  0  0  0  0  0  0  0
    4.5630  -13.1086   24.7953 C   0  0  0  0  0  0  0  0  0  0  0  0
    5.5596  -13.7009   24.7040 O   0  0  0  0  0  0  0  0  0  0  0  0
    4.1568  -11.7478   24.2103 N   0  0  0  0  0  0  0  0  0  0  0  0
    4.9223  -10.7851   23.4683 C   0  0  1  0  0  0  0  0  0  0  0  0
    4.7962  -11.0432   21.9744 C   0  0  0  0  0  0  0  0  0  0  0  0
    5.2346   -9.7317   21.3620 C   0  0  0  0  0  0  0  0  0  0  0  0
    4.5869   -8.6799   22.2436 C   0  0  0  0  0  0  0  0  0  0  0  0
    4.5418   -9.2868   23.6666 C   0  0  0  0  0  0  0  0  0  0  0  0
    5.5766   -8.5680   24.5467 C   0  0  0  0  0  0  0  0  0  0  0  0
    3.1489   -9.0818   24.2779 C   0  0  0  0  0  0  0  0  0  0  0  0
    3.6076  -14.6087   26.6290 C   0  0  0  0  0  0  0  0  0  0  0  0
    4.7663  -15.4591   27.0170 C   0  0  0  0  0  0  0  0  0  0  0  0
  1  2  1  0
  2  3  1  0
  3  4  1  0
  4  5  2  0
  5  6  1  0
  6  7  1  0
  7  8  2  0
  7  9  1  0
 10  9  1  1
 10 11  1  0
 11 12  1  0
 12 13  1  0
 13 14  1  0
 14 15  1  0
 14 16  1  0
  6 17  2  0
 17 18  1  0
 17  3  1  0
 14 10  1  0
M  END
>  <inchikey>  (1406) 
OOVBXMRKSLTQID-UHFFFAOYSA-N

>  <tags>  (1406) 
fragmenstein_placed,CpKRS_FrAncestor_bulkdock_iter2

>  <ref_pdb>  (1406) 
x0504a

>  <energy_score>  (1406) 
-17.867504

>  <distance_score>  (1406) 
0.495522

>  <HIPPO Pose ID>  (1406) 
60492

>  <ref_mols>  (1406) 
x0421d

>  <smiles>  (1406) 
CCn1ncc(C(=O)NC2CCCC2(C)C)c1C

>  <HIPPO Compound ID>  (1406) 
340285

>  <alias>  (1406) 
OOVBXMRKSLTQID-UHFFFAOYSA-N-P14

>  <subsites>  (1406) 


>  <placement_batch>  (1406) 
CpKRS_FrAncestor_bulkdock_iter2

>  <name>  (1406) 
OOVBXMRKSLTQID-UHFFFAOYSA-N-P14

$$$$
MGPQECVEYHQWDE-UHFFFAOYSA-N-P12
     RDKit          3D

 18 19  0  0  0  0  0  0  0  0999 V2000
    1.6618  -17.3928   24.9374 C   0  0  0  0  0  0  0  0  0  0  0  0
    2.3739  -16.9741   26.2135 C   0  0  0  0  0  0  0  0  0  0  0  0
    2.6280  -15.5452   26.2061 N   0  0  0  0  0  0  0  0  0  0  0  0
    1.5967  -14.6844   26.3970 N   0  0  0  0  0  0  0  0  0  0  0  0
    2.0764  -13.5311   25.9168 C   0  0  0  0  0  0  0  0  0  0  0  0
    3.3917  -13.6466   25.4005 C   0  0  0  0  0  0  0  0  0  0  0  0
    4.2203  -12.6989   24.6712 C   0  0  0  0  0  0  0  0  0  0  0  0
    5.3778  -12.7265   24.7877 O   0  0  0  0  0  0  0  0  0  0  0  0
    3.3266  -11.7966   23.8012 N   0  0  0  0  0  0  0  0  0  0  0  0
    3.6625  -10.6787   22.9656 C   0  0  2  0  0  0  0  0  0  0  0  0
    4.9033  -10.8959   22.1014 C   0  0  0  0  0  0  0  0  0  0  0  0
    5.5510   -9.5232   22.0210 C   0  0  0  0  0  0  0  0  0  0  0  0
    5.3335   -8.9233   23.4131 C   0  0  0  0  0  0  0  0  0  0  0  0
    5.5019   -7.4139   23.3962 C   0  0  0  0  0  0  0  0  0  0  0  0
    6.3063   -9.4293   24.4707 C   0  0  0  0  0  0  0  0  0  0  0  0
    3.9169   -9.3953   23.7698 C   0  0  0  0  0  0  0  0  0  0  0  0
    3.7536  -14.9196   25.7673 C   0  0  0  0  0  0  0  0  0  0  0  0
    5.2176  -15.7764   25.6380 Cl  0  0  0  0  0  0  0  0  0  0  0  0
  1  2  1  0
  2  3  1  0
  3  4  1  0
  4  5  2  0
  5  6  1  0
  6  7  1  0
  7  8  2  0
  7  9  1  0
 10  9  1  1
 10 11  1  0
 11 12  1  0
 12 13  1  0
 13 14  1  0
 13 15  1  0
 13 16  1  0
  6 17  2  0
 17 18  1  0
 17  3  1  0
 16 10  1  0
M  END
>  <inchikey>  (1407) 
MGPQECVEYHQWDE-UHFFFAOYSA-N

>  <tags>  (1407) 
fragmenstein_placed,CpKRS_FrAncestor_bulkdock_iter2

>  <ref_pdb>  (1407) 
x0504a

>  <energy_score>  (1407) 
-3.859401

>  <distance_score>  (1407) 
0.970886

>  <HIPPO Pose ID>  (1407) 
60494

>  <ref_mols>  (1407) 
x0421b

>  <smiles>  (1407) 
CCn1ncc(C(=O)NC2CCC(C)(C)C2)c1Cl

>  <HIPPO Compound ID>  (1407) 
335292

>  <alias>  (1407) 
MGPQECVEYHQWDE-UHFFFAOYSA-N-P12

>  <subsites>  (1407) 


>  <placement_batch>  (1407) 
CpKRS_FrAncestor_bulkdock_iter2

>  <name>  (1407) 
MGPQECVEYHQWDE-UHFFFAOYSA-N-P12

$$$$
YWPNEOYNDSFJJC-UHFFFAOYSA-N-P14
     RDKit          3D

 18 19  0  0  0  0  0  0  0  0999 V2000
    1.1732  -14.7430   29.7032 C   0  0  0  0  0  0  0  0  0  0  0  0
    1.8738  -15.5389   28.6268 C   0  0  0  0  0  0  0  0  0  0  0  0
    2.2013  -14.7651   27.4517 N   0  0  0  0  0  0  0  0  0  0  0  0
    1.2403  -14.0224   26.8550 N   0  0  0  0  0  0  0  0  0  0  0  0
    1.9068  -13.4151   25.8719 C   0  0  0  0  0  0  0  0  0  0  0  0
    3.2724  -13.7826   25.8104 C   0  0  0  0  0  0  0  0  0  0  0  0
    4.3638  -13.2765   24.9759 C   0  0  0  0  0  0  0  0  0  0  0  0
    5.3630  -13.8656   24.9073 O   0  0  0  0  0  0  0  0  0  0  0  0
    3.9705  -11.9184   24.3894 N   0  0  0  0  0  0  0  0  0  0  0  0
    4.7371  -10.9685   23.6862 C   0  0  1  0  0  0  0  0  0  0  0  0
    5.0418  -11.2482   22.2332 C   0  0  0  0  0  0  0  0  0  0  0  0
    5.5887   -9.8996   21.7522 C   0  0  0  0  0  0  0  0  0  0  0  0
    5.2557   -8.8605   22.8500 C   0  0  0  0  0  0  0  0  0  0  0  0
    6.3753   -8.4894   23.8377 C   0  0  0  0  0  0  0  0  0  0  0  0
    4.8443   -7.5871   22.1648 C   0  0  0  0  0  0  0  0  0  0  0  0
    4.1621   -9.5619   23.6567 C   0  0  0  0  0  0  0  0  0  0  0  0
    3.3933  -14.7663   26.7818 C   0  0  0  0  0  0  0  0  0  0  0  0
    4.5169  -15.6719   27.1345 C   0  0  0  0  0  0  0  0  0  0  0  0
  1  2  1  0
  2  3  1  0
  3  4  1  0
  4  5  2  0
  5  6  1  0
  6  7  1  0
  7  8  2  0
  7  9  1  0
 10  9  1  6
 10 11  1  0
 11 12  1  0
 12 13  1  0
 13 14  1  0
 13 15  1  0
 13 16  1  0
  6 17  2  0
 17 18  1  0
 17  3  1  0
 16 10  1  0
M  END
>  <inchikey>  (1408) 
YWPNEOYNDSFJJC-UHFFFAOYSA-N

>  <tags>  (1408) 
fragmenstein_placed,CpKRS_FrAncestor_bulkdock_iter2

>  <ref_pdb>  (1408) 
x0504a

>  <energy_score>  (1408) 
-14.829414

>  <distance_score>  (1408) 
0.455007

>  <HIPPO Pose ID>  (1408) 
60500

>  <ref_mols>  (1408) 
x0421d

>  <smiles>  (1408) 
CCn1ncc(C(=O)NC2CCC(C)(C)C2)c1C

>  <HIPPO Compound ID>  (1408) 
366054

>  <alias>  (1408) 
YWPNEOYNDSFJJC-UHFFFAOYSA-N-P14

>  <subsites>  (1408) 


>  <placement_batch>  (1408) 
CpKRS_FrAncestor_bulkdock_iter2

>  <name>  (1408) 
YWPNEOYNDSFJJC-UHFFFAOYSA-N-P14

$$$$
BLXSRPVGTOPICB-SKDRFNHKSA-N-P13
     RDKit          3D

 17 18  0  0  0  0  0  0  0  0999 V2000
   -0.5949  -14.5590   26.1521 C   0  0  0  0  0  0  0  0  0  0  0  0
    0.7263  -14.8109   26.8735 C   0  0  0  0  0  0  0  0  0  0  0  0
    1.6976  -13.8132   26.5072 N   0  0  0  0  0  0  0  0  0  0  0  0
    1.2356  -12.5618   26.3466 N   0  0  0  0  0  0  0  0  0  0  0  0
    2.1269  -12.0258   25.5248 C   0  0  0  0  0  0  0  0  0  0  0  0
    3.2591  -12.8516   25.3334 C   0  0  0  0  0  0  0  0  0  0  0  0
    4.4666  -12.5903   24.5614 C   0  0  0  0  0  0  0  0  0  0  0  0
    5.1168  -13.4750   24.1762 O   0  0  0  0  0  0  0  0  0  0  0  0
    4.5945  -11.0791   24.3147 N   0  0  0  0  0  0  0  0  0  0  0  0
    5.5938  -10.3365   23.6267 C   0  0  1  0  0  0  0  0  0  0  0  0
    5.4329  -10.6248   22.1306 C   0  0  0  0  0  0  0  0  0  0  0  0
    5.4901   -9.2728   21.4582 C   0  0  0  0  0  0  0  0  0  0  0  0
    4.9150   -8.3317   22.4937 C   0  0  0  0  0  0  0  0  0  0  0  0
    5.5549   -8.8108   23.7871 C   0  0  1  0  0  0  0  0  0  0  0  0
    4.8879   -8.2490   25.0306 C   0  0  0  0  0  0  0  0  0  0  0  0
    2.9787  -13.9986   26.0672 C   0  0  0  0  0  0  0  0  0  0  0  0
    3.7985  -15.2158   26.3385 C   0  0  0  0  0  0  0  0  0  0  0  0
  1  2  1  0
  2  3  1  0
  3  4  1  0
  4  5  2  0
  5  6  1  0
  6  7  1  0
  7  8  2  0
  7  9  1  0
 10  9  1  1
 10 11  1  0
 11 12  1  0
 12 13  1  0
 13 14  1  0
 14 15  1  1
  6 16  2  0
 16 17  1  0
 16  3  1  0
 14 10  1  0
M  END
>  <inchikey>  (1409) 
BLXSRPVGTOPICB-UHFFFAOYSA-N

>  <tags>  (1409) 
fragmenstein_placed,CpKRS_FrAncestor_bulkdock_iter2

>  <ref_pdb>  (1409) 
x0504a

>  <energy_score>  (1409) 
-11.40855

>  <distance_score>  (1409) 
0.909861

>  <HIPPO Pose ID>  (1409) 
60519

>  <ref_mols>  (1409) 
x0421c

>  <smiles>  (1409) 
CCn1ncc(C(=O)N[C@H]2CCC[C@H]2C)c1C

>  <HIPPO Compound ID>  (1409) 
225072

>  <alias>  (1409) 
BLXSRPVGTOPICB-SKDRFNHKSA-N-P13

>  <subsites>  (1409) 


>  <placement_batch>  (1409) 
CpKRS_FrAncestor_bulkdock_iter2

>  <name>  (1409) 
BLXSRPVGTOPICB-SKDRFNHKSA-N-P13

$$$$
AOGIKFGENGJKFW-UHFFFAOYSA-N-P49
     RDKit          3D

 18 18  0  0  0  0  0  0  0  0999 V2000
    2.6252  -17.0851   27.9303 C   0  0  0  0  0  0  0  0  0  0  0  0
    2.7008  -15.6718   28.4319 C   0  0  0  0  0  0  0  0  0  0  0  0
    2.5806  -14.7535   27.3269 N   0  0  0  0  0  0  0  0  0  0  0  0
    1.4233  -14.0718   27.1343 N   0  0  0  0  0  0  0  0  0  0  0  0
    1.7154  -13.2993   26.0800 C   0  0  0  0  0  0  0  0  0  0  0  0
    3.0347  -13.4846   25.5895 C   0  0  0  0  0  0  0  0  0  0  0  0
    3.7674  -12.8269   24.5224 C   0  0  0  0  0  0  0  0  0  0  0  0
    4.6087  -13.3920   23.9552 O   0  0  0  0  0  0  0  0  0  0  0  0
    3.2292  -11.4047   24.3400 N   0  0  0  0  0  0  0  0  0  0  0  0
    3.6816  -10.3244   23.4706 C   0  0  0  0  0  0  0  0  0  0  0  0
    2.4522   -9.4864   23.1224 C   0  0  0  0  0  0  0  0  0  0  0  0
    4.2927  -10.9104   22.1888 C   0  0  0  0  0  0  0  0  0  0  0  0
    4.7360   -9.4210   24.1395 C   0  0  0  0  0  0  0  0  0  0  0  0
    5.8001  -10.1086   24.5887 F   0  0  0  0  0  0  0  0  0  0  0  0
    4.2115   -8.7678   25.2044 F   0  0  0  0  0  0  0  0  0  0  0  0
    5.1832   -8.4781   23.2763 F   0  0  0  0  0  0  0  0  0  0  0  0
    3.5249  -14.4862   26.3851 C   0  0  0  0  0  0  0  0  0  0  0  0
    5.0262  -15.2997   26.3857 Cl  0  0  0  0  0  0  0  0  0  0  0  0
  1  2  1  0
  2  3  1  0
  3  4  1  0
  4  5  2  0
  5  6  1  0
  6  7  1  0
  7  8  2  0
  7  9  1  0
  9 10  1  0
 10 11  1  0
 10 12  1  0
 10 13  1  0
 13 14  1  0
 13 15  1  0
 13 16  1  0
  6 17  2  0
 17 18  1  0
 17  3  1  0
M  END
>  <inchikey>  (1410) 
AOGIKFGENGJKFW-UHFFFAOYSA-N

>  <tags>  (1410) 
fragmenstein_placed,CpKRS_FrAncestor_bulkdock_iter2

>  <ref_pdb>  (1410) 
x0504a

>  <energy_score>  (1410) 
-6.960351

>  <distance_score>  (1410) 
0.701381

>  <HIPPO Pose ID>  (1410) 
60526

>  <ref_mols>  (1410) 
x0504b

>  <smiles>  (1410) 
CCn1ncc(C(=O)NC(C)(C)C(F)(F)F)c1Cl

>  <HIPPO Compound ID>  (1410) 
350651

>  <alias>  (1410) 
AOGIKFGENGJKFW-UHFFFAOYSA-N-P49

>  <subsites>  (1410) 


>  <placement_batch>  (1410) 
CpKRS_FrAncestor_bulkdock_iter2

>  <name>  (1410) 
AOGIKFGENGJKFW-UHFFFAOYSA-N-P49

$$$$
ZWJLWKVSWNGJQJ-UHFFFAOYSA-N-P48
     RDKit          3D

 18 18  0  0  0  0  0  0  0  0999 V2000
    3.6224  -16.3933   29.4560 C   0  0  0  0  0  0  0  0  0  0  0  0
    2.5210  -16.4311   28.4202 C   0  0  0  0  0  0  0  0  0  0  0  0
    2.5627  -15.3157   27.5025 N   0  0  0  0  0  0  0  0  0  0  0  0
    1.5701  -14.4122   27.5208 N   0  0  0  0  0  0  0  0  0  0  0  0
    1.9887  -13.4778   26.6656 C   0  0  0  0  0  0  0  0  0  0  0  0
    3.2296  -13.7965   26.0578 C   0  0  0  0  0  0  0  0  0  0  0  0
    4.0806  -13.0602   25.1140 C   0  0  0  0  0  0  0  0  0  0  0  0
    5.1637  -13.4285   24.9081 O   0  0  0  0  0  0  0  0  0  0  0  0
    3.2920  -11.9032   24.4962 N   0  0  0  0  0  0  0  0  0  0  0  0
    3.6367  -10.9961   23.4095 C   0  0  0  0  0  0  0  0  0  0  0  0
    2.4610  -10.0332   23.2293 C   0  0  0  0  0  0  0  0  0  0  0  0
    3.8887  -11.8602   22.1686 C   0  0  0  0  0  0  0  0  0  0  0  0
    4.8984  -10.1366   23.6295 C   0  0  0  0  0  0  0  0  0  0  0  0
    4.6811   -9.2025   24.5863 F   0  0  0  0  0  0  0  0  0  0  0  0
    5.2123   -9.4565   22.4945 F   0  0  0  0  0  0  0  0  0  0  0  0
    5.9748  -10.8447   23.9965 F   0  0  0  0  0  0  0  0  0  0  0  0
    3.5252  -15.0531   26.5671 C   0  0  0  0  0  0  0  0  0  0  0  0
    4.6537  -15.9679   26.2603 C   0  0  0  0  0  0  0  0  0  0  0  0
  1  2  1  0
  2  3  1  0
  3  4  1  0
  4  5  2  0
  5  6  1  0
  6  7  1  0
  7  8  2  0
  7  9  1  0
  9 10  1  0
 10 11  1  0
 10 12  1  0
 10 13  1  0
 13 14  1  0
 13 15  1  0
 13 16  1  0
  6 17  2  0
 17 18  1  0
 17  3  1  0
M  END
>  <inchikey>  (1411) 
ZWJLWKVSWNGJQJ-UHFFFAOYSA-N

>  <tags>  (1411) 
fragmenstein_placed,CpKRS_FrAncestor_bulkdock_iter2

>  <ref_pdb>  (1411) 
x0504a

>  <energy_score>  (1411) 
-13.771807

>  <distance_score>  (1411) 
0.638229

>  <HIPPO Pose ID>  (1411) 
60528

>  <ref_mols>  (1411) 
x0504a

>  <smiles>  (1411) 
CCn1ncc(C(=O)NC(C)(C)C(F)(F)F)c1C

>  <HIPPO Compound ID>  (1411) 
350630

>  <alias>  (1411) 
ZWJLWKVSWNGJQJ-UHFFFAOYSA-N-P48

>  <subsites>  (1411) 


>  <placement_batch>  (1411) 
CpKRS_FrAncestor_bulkdock_iter2

>  <name>  (1411) 
ZWJLWKVSWNGJQJ-UHFFFAOYSA-N-P48

$$$$
FUKJNIBILTXNQJ-UHFFFAOYSA-N-P49
     RDKit          3D

 18 18  0  0  0  0  0  0  0  0999 V2000
    3.2882  -16.6915   28.4972 C   0  0  0  0  0  0  0  0  0  0  0  0
    2.0712  -15.7958   28.4792 C   0  0  0  0  0  0  0  0  0  0  0  0
    2.0832  -14.8218   27.4112 N   0  0  0  0  0  0  0  0  0  0  0  0
    1.0026  -14.0230   27.2247 N   0  0  0  0  0  0  0  0  0  0  0  0
    1.4096  -13.2116   26.2380 C   0  0  0  0  0  0  0  0  0  0  0  0
    2.7288  -13.4773   25.7877 C   0  0  0  0  0  0  0  0  0  0  0  0
    3.5760  -12.8461   24.7835 C   0  0  0  0  0  0  0  0  0  0  0  0
    4.4726  -13.4334   24.3340 O   0  0  0  0  0  0  0  0  0  0  0  0
    3.0366  -11.4485   24.4526 N   0  0  0  0  0  0  0  0  0  0  0  0
    3.5520  -10.4206   23.5489 C   0  0  0  0  0  0  0  0  0  0  0  0
    2.3683   -9.5285   23.1680 C   0  0  0  0  0  0  0  0  0  0  0  0
    4.1271  -11.0875   22.2902 C   0  0  0  0  0  0  0  0  0  0  0  0
    4.6525   -9.5379   24.1742 C   0  0  0  0  0  0  0  0  0  0  0  0
    5.7104  -10.2445   24.6047 F   0  0  0  0  0  0  0  0  0  0  0  0
    4.1765   -8.8463   25.2376 F   0  0  0  0  0  0  0  0  0  0  0  0
    5.1041   -8.6239   23.2802 F   0  0  0  0  0  0  0  0  0  0  0  0
    3.0954  -14.5642   26.5397 C   0  0  0  0  0  0  0  0  0  0  0  0
    4.2651  -15.2178   26.4581 F   0  0  0  0  0  0  0  0  0  0  0  0
  1  2  1  0
  2  3  1  0
  3  4  1  0
  4  5  2  0
  5  6  1  0
  6  7  1  0
  7  8  2  0
  7  9  1  0
  9 10  1  0
 10 11  1  0
 10 12  1  0
 10 13  1  0
 13 14  1  0
 13 15  1  0
 13 16  1  0
  6 17  2  0
 17 18  1  0
 17  3  1  0
M  END
>  <inchikey>  (1412) 
FUKJNIBILTXNQJ-UHFFFAOYSA-N

>  <tags>  (1412) 
fragmenstein_placed,CpKRS_FrAncestor_bulkdock_iter2

>  <ref_pdb>  (1412) 
x0504a

>  <energy_score>  (1412) 
-0.711669

>  <distance_score>  (1412) 
0.658751

>  <HIPPO Pose ID>  (1412) 
60532

>  <ref_mols>  (1412) 
x0504b

>  <smiles>  (1412) 
CCn1ncc(C(=O)NC(C)(C)C(F)(F)F)c1F

>  <HIPPO Compound ID>  (1412) 
350668

>  <alias>  (1412) 
FUKJNIBILTXNQJ-UHFFFAOYSA-N-P49

>  <subsites>  (1412) 


>  <placement_batch>  (1412) 
CpKRS_FrAncestor_bulkdock_iter2

>  <name>  (1412) 
FUKJNIBILTXNQJ-UHFFFAOYSA-N-P49

$$$$
KZOGBNRSJOHDPB-UHFFFAOYSA-N-P48
     RDKit          3D

 16 16  0  0  0  0  0  0  0  0999 V2000
    3.4993  -16.2717   29.2766 C   0  0  0  0  0  0  0  0  0  0  0  0
    2.4711  -16.2167   28.1642 C   0  0  0  0  0  0  0  0  0  0  0  0
    2.6288  -15.1101   27.2467 N   0  0  0  0  0  0  0  0  0  0  0  0
    1.6370  -14.1980   27.1194 N   0  0  0  0  0  0  0  0  0  0  0  0
    2.1473  -13.3070   26.2570 C   0  0  0  0  0  0  0  0  0  0  0  0
    3.4215  -13.6791   25.7592 C   0  0  0  0  0  0  0  0  0  0  0  0
    4.3571  -13.0099   24.8648 C   0  0  0  0  0  0  0  0  0  0  0  0
    5.4928  -13.0465   25.1018 O   0  0  0  0  0  0  0  0  0  0  0  0
    3.6062  -12.3398   23.7144 N   0  0  0  0  0  0  0  0  0  0  0  0
    4.1020  -11.6449   22.5474 C   0  0  0  0  0  0  0  0  0  0  0  0
    4.2653  -10.1356   22.7092 C   0  0  0  0  0  0  0  0  0  0  0  0
    3.0565   -9.5099   22.7518 F   0  0  0  0  0  0  0  0  0  0  0  0
    4.9379   -9.6066   21.6615 F   0  0  0  0  0  0  0  0  0  0  0  0
    4.9254   -9.7891   23.8334 F   0  0  0  0  0  0  0  0  0  0  0  0
    3.6525  -14.8803   26.3814 C   0  0  0  0  0  0  0  0  0  0  0  0
    4.9239  -15.9953   26.2066 Cl  0  0  0  0  0  0  0  0  0  0  0  0
  1  2  1  0
  2  3  1  0
  3  4  1  0
  4  5  2  0
  5  6  1  0
  6  7  1  0
  7  8  2  0
  7  9  1  0
  9 10  1  0
 10 11  1  0
 11 12  1  0
 11 13  1  0
 11 14  1  0
  6 15  2  0
 15 16  1  0
 15  3  1  0
M  END
>  <inchikey>  (1413) 
KZOGBNRSJOHDPB-UHFFFAOYSA-N

>  <tags>  (1413) 
fragmenstein_placed,CpKRS_FrAncestor_bulkdock_iter2

>  <ref_pdb>  (1413) 
x0504a

>  <energy_score>  (1413) 
-5.744256

>  <distance_score>  (1413) 
0.518865

>  <HIPPO Pose ID>  (1413) 
60543

>  <ref_mols>  (1413) 
x0504a

>  <smiles>  (1413) 
CCn1ncc(C(=O)NCC(F)(F)F)c1Cl

>  <HIPPO Compound ID>  (1413) 
451947

>  <alias>  (1413) 
KZOGBNRSJOHDPB-UHFFFAOYSA-N-P48

>  <subsites>  (1413) 


>  <placement_batch>  (1413) 
CpKRS_FrAncestor_bulkdock_iter2

>  <name>  (1413) 
KZOGBNRSJOHDPB-UHFFFAOYSA-N-P48

$$$$
NCWFSICNMZCDIY-UHFFFAOYSA-N-P49
     RDKit          3D

 16 16  0  0  0  0  0  0  0  0999 V2000
    3.2283  -16.2324   28.9933 C   0  0  0  0  0  0  0  0  0  0  0  0
    2.1944  -16.2968   27.8849 C   0  0  0  0  0  0  0  0  0  0  0  0
    2.2731  -15.1479   27.0080 N   0  0  0  0  0  0  0  0  0  0  0  0
    1.2909  -14.2231   27.0231 N   0  0  0  0  0  0  0  0  0  0  0  0
    1.7574  -13.2777   26.2002 C   0  0  0  0  0  0  0  0  0  0  0  0
    2.9977  -13.6122   25.5994 C   0  0  0  0  0  0  0  0  0  0  0  0
    3.8785  -12.8629   24.6872 C   0  0  0  0  0  0  0  0  0  0  0  0
    4.9835  -13.2025   24.5662 O   0  0  0  0  0  0  0  0  0  0  0  0
    3.1204  -11.6997   24.0388 N   0  0  0  0  0  0  0  0  0  0  0  0
    3.5871  -10.6420   23.1700 C   0  0  0  0  0  0  0  0  0  0  0  0
    4.7393   -9.8111   23.7402 C   0  0  0  0  0  0  0  0  0  0  0  0
    4.4253   -9.3048   24.9543 F   0  0  0  0  0  0  0  0  0  0  0  0
    5.8773  -10.5140   23.8692 F   0  0  0  0  0  0  0  0  0  0  0  0
    4.9961   -8.7586   22.9257 F   0  0  0  0  0  0  0  0  0  0  0  0
    3.2893  -14.8602   26.1357 C   0  0  0  0  0  0  0  0  0  0  0  0
    4.4709  -15.7418   25.9215 C   0  0  0  0  0  0  0  0  0  0  0  0
  1  2  1  0
  2  3  1  0
  3  4  1  0
  4  5  2  0
  5  6  1  0
  6  7  1  0
  7  8  2  0
  7  9  1  0
  9 10  1  0
 10 11  1  0
 11 12  1  0
 11 13  1  0
 11 14  1  0
  6 15  2  0
 15 16  1  0
 15  3  1  0
M  END
>  <inchikey>  (1414) 
NCWFSICNMZCDIY-UHFFFAOYSA-N

>  <tags>  (1414) 
fragmenstein_placed,CpKRS_FrAncestor_bulkdock_iter2

>  <ref_pdb>  (1414) 
x0504a

>  <energy_score>  (1414) 
-1.634809

>  <distance_score>  (1414) 
0.449198

>  <HIPPO Pose ID>  (1414) 
60547

>  <ref_mols>  (1414) 
x0504b

>  <smiles>  (1414) 
CCn1ncc(C(=O)NCC(F)(F)F)c1C

>  <HIPPO Compound ID>  (1414) 
451948

>  <alias>  (1414) 
NCWFSICNMZCDIY-UHFFFAOYSA-N-P49

>  <subsites>  (1414) 


>  <placement_batch>  (1414) 
CpKRS_FrAncestor_bulkdock_iter2

>  <name>  (1414) 
NCWFSICNMZCDIY-UHFFFAOYSA-N-P49

$$$$
IUNOGYWRUKRTQR-RXMQYKEDSA-N-P48
     RDKit          3D

 17 17  0  0  0  0  0  0  0  0999 V2000
    3.5577  -16.3217   29.3467 C   0  0  0  0  0  0  0  0  0  0  0  0
    2.5159  -16.2921   28.2481 C   0  0  0  0  0  0  0  0  0  0  0  0
    2.6070  -15.1478   27.3688 N   0  0  0  0  0  0  0  0  0  0  0  0
    1.5855  -14.2630   27.3169 N   0  0  0  0  0  0  0  0  0  0  0  0
    2.0285  -13.3319   26.4615 C   0  0  0  0  0  0  0  0  0  0  0  0
    3.2948  -13.6414   25.9032 C   0  0  0  0  0  0  0  0  0  0  0  0
    4.1509  -12.9234   24.9657 C   0  0  0  0  0  0  0  0  0  0  0  0
    5.3055  -13.0153   25.0532 O   0  0  0  0  0  0  0  0  0  0  0  0
    3.2886  -12.2139   23.9186 N   0  0  0  0  0  0  0  0  0  0  0  0
    3.6679  -11.3762   22.7941 C   0  0  2  0  0  0  0  0  0  0  0  0
    4.7932  -12.0459   22.0214 C   0  0  0  0  0  0  0  0  0  0  0  0
    4.0700   -9.9353   23.1226 C   0  0  0  0  0  0  0  0  0  0  0  0
    4.9948   -9.8332   24.0933 F   0  0  0  0  0  0  0  0  0  0  0  0
    2.9830   -9.2156   23.5186 F   0  0  0  0  0  0  0  0  0  0  0  0
    4.5545   -9.3032   22.0250 F   0  0  0  0  0  0  0  0  0  0  0  0
    3.5937  -14.8510   26.4807 C   0  0  0  0  0  0  0  0  0  0  0  0
    4.8954  -15.9182   26.2319 Cl  0  0  0  0  0  0  0  0  0  0  0  0
  1  2  1  0
  2  3  1  0
  3  4  1  0
  4  5  2  0
  5  6  1  0
  6  7  1  0
  7  8  2  0
  7  9  1  0
  9 10  1  0
 10 11  1  1
 10 12  1  0
 12 13  1  0
 12 14  1  0
 12 15  1  0
  6 16  2  0
 16 17  1  0
 16  3  1  0
M  END
>  <inchikey>  (1415) 
IUNOGYWRUKRTQR-UHFFFAOYSA-N

>  <tags>  (1415) 
fragmenstein_placed,CpKRS_FrAncestor_bulkdock_iter2

>  <ref_pdb>  (1415) 
x0504a

>  <energy_score>  (1415) 
-3.206809

>  <distance_score>  (1415) 
0.557775

>  <HIPPO Pose ID>  (1415) 
60552

>  <ref_mols>  (1415) 
x0504a

>  <smiles>  (1415) 
CCn1ncc(C(=O)N[C@H](C)C(F)(F)F)c1Cl

>  <HIPPO Compound ID>  (1415) 
167221

>  <alias>  (1415) 
IUNOGYWRUKRTQR-RXMQYKEDSA-N-P48

>  <subsites>  (1415) 


>  <placement_batch>  (1415) 
CpKRS_FrAncestor_bulkdock_iter2

>  <name>  (1415) 
IUNOGYWRUKRTQR-RXMQYKEDSA-N-P48

$$$$
WYAPZWWSYGDEBB-SSDOTTSWSA-N-P49
     RDKit          3D

 17 17  0  0  0  0  0  0  0  0999 V2000
    3.1645  -16.2573   28.9109 C   0  0  0  0  0  0  0  0  0  0  0  0
    2.2010  -16.2955   27.7397 C   0  0  0  0  0  0  0  0  0  0  0  0
    2.3201  -15.1191   26.9042 N   0  0  0  0  0  0  0  0  0  0  0  0
    1.3308  -14.2007   26.8884 N   0  0  0  0  0  0  0  0  0  0  0  0
    1.8290  -13.2353   26.1071 C   0  0  0  0  0  0  0  0  0  0  0  0
    3.1039  -13.5469   25.5722 C   0  0  0  0  0  0  0  0  0  0  0  0
    4.0262  -12.7641   24.7373 C   0  0  0  0  0  0  0  0  0  0  0  0
    5.1646  -12.9972   24.7867 O   0  0  0  0  0  0  0  0  0  0  0  0
    3.2582  -11.7312   23.9027 N   0  0  0  0  0  0  0  0  0  0  0  0
    3.7428  -10.6868   23.0092 C   0  0  2  0  0  0  0  0  0  0  0  0
    4.7895  -11.2618   22.0630 C   0  0  0  0  0  0  0  0  0  0  0  0
    4.3085   -9.4588   23.7388 C   0  0  0  0  0  0  0  0  0  0  0  0
    3.2893   -8.7118   24.2368 F   0  0  0  0  0  0  0  0  0  0  0  0
    5.1333   -9.7645   24.7570 F   0  0  0  0  0  0  0  0  0  0  0  0
    4.9827   -8.6490   22.8873 F   0  0  0  0  0  0  0  0  0  0  0  0
    3.3805  -14.8023   26.0970 C   0  0  0  0  0  0  0  0  0  0  0  0
    4.5813  -15.6667   25.9288 C   0  0  0  0  0  0  0  0  0  0  0  0
  1  2  1  0
  2  3  1  0
  3  4  1  0
  4  5  2  0
  5  6  1  0
  6  7  1  0
  7  8  2  0
  7  9  1  0
  9 10  1  0
 10 11  1  1
 10 12  1  0
 12 13  1  0
 12 14  1  0
 12 15  1  0
  6 16  2  0
 16 17  1  0
 16  3  1  0
M  END
>  <inchikey>  (1416) 
WYAPZWWSYGDEBB-UHFFFAOYSA-N

>  <tags>  (1416) 
fragmenstein_placed,CpKRS_FrAncestor_bulkdock_iter2

>  <ref_pdb>  (1416) 
x0504a

>  <energy_score>  (1416) 
-11.048138

>  <distance_score>  (1416) 
0.524205

>  <HIPPO Pose ID>  (1416) 
60559

>  <ref_mols>  (1416) 
x0504b

>  <smiles>  (1416) 
CCn1ncc(C(=O)N[C@H](C)C(F)(F)F)c1C

>  <HIPPO Compound ID>  (1416) 
237657

>  <alias>  (1416) 
WYAPZWWSYGDEBB-SSDOTTSWSA-N-P49

>  <subsites>  (1416) 


>  <placement_batch>  (1416) 
CpKRS_FrAncestor_bulkdock_iter2

>  <name>  (1416) 
WYAPZWWSYGDEBB-SSDOTTSWSA-N-P49

$$$$
KUGQFGFIHNQHRJ-UHFFFAOYSA-N-P45
     RDKit          3D

 15 16  0  0  0  0  0  0  0  0999 V2000
    5.4148  -13.7016   25.2668 O   0  0  0  0  0  0  0  0  0  0  0  0
    4.3112  -13.4089   25.0344 C   0  0  0  0  0  0  0  0  0  0  0  0
    3.7268  -12.5335   23.9113 N   0  0  0  0  0  0  0  0  0  0  0  0
    4.3632  -11.9142   22.7882 C   0  0  0  0  0  0  0  0  0  0  0  0
    4.3217  -10.3965   22.8867 C   0  0  1  0  0  0  0  0  0  0  0  0
    4.9598   -9.8324   24.1605 C   0  0  0  0  0  0  0  0  0  0  0  0
    5.5254   -8.4615   23.7852 C   0  0  0  0  0  0  0  0  0  0  0  0
    5.2443   -8.3036   22.3017 C   0  0  2  0  0  0  0  0  0  0  0  0
    4.0429   -7.6910   22.1468 F   0  0  0  0  0  0  0  0  0  0  0  0
    5.1106   -9.7129   21.7748 C   0  0  0  0  0  0  0  0  0  0  0  0
    3.2509  -13.8458   25.9444 C   0  0  0  0  0  0  0  0  0  0  0  0
    3.3066  -14.8383   26.9056 C   0  0  0  0  0  0  0  0  0  0  0  0
    2.0838  -14.9033   27.6254 C   0  0  0  0  0  0  0  0  0  0  0  0
    1.1255  -14.0426   27.2822 N   0  0  0  0  0  0  0  0  0  0  0  0
    1.7048  -13.1210   26.0296 S   0  0  0  0  0  0  0  0  0  0  0  0
  1  2  2  0
  2  3  1  0
  3  4  1  0
  5  4  1  1
  5  6  1  0
  6  7  1  0
  7  8  1  0
  8  9  1  1
  8 10  1  0
  2 11  1  0
 11 12  2  0
 12 13  1  0
 13 14  2  0
 14 15  1  0
 10  5  1  0
 15 11  1  0
M  END
>  <inchikey>  (1417) 
KUGQFGFIHNQHRJ-UHFFFAOYSA-N

>  <tags>  (1417) 
fragmenstein_placed,CpKRS_FrAncestor_bulkdock_iter2

>  <ref_pdb>  (1417) 
x0654b

>  <energy_score>  (1417) 
-10.546117

>  <distance_score>  (1417) 
0.318138

>  <HIPPO Pose ID>  (1417) 
60577

>  <ref_mols>  (1417) 
x0502a

>  <smiles>  (1417) 
O=C(NCC1CCC(F)C1)c1ccns1

>  <HIPPO Compound ID>  (1417) 
453008

>  <alias>  (1417) 
KUGQFGFIHNQHRJ-UHFFFAOYSA-N-P45

>  <subsites>  (1417) 


>  <placement_batch>  (1417) 
CpKRS_FrAncestor_bulkdock_iter2

>  <name>  (1417) 
KUGQFGFIHNQHRJ-UHFFFAOYSA-N-P45

$$$$
AZGYKBXHRGHFTH-UHFFFAOYSA-N-P45
     RDKit          3D

 15 16  0  0  0  0  0  0  0  0999 V2000
    5.5705  -13.8208   25.2342 O   0  0  0  0  0  0  0  0  0  0  0  0
    4.4557  -13.5071   25.1075 C   0  0  0  0  0  0  0  0  0  0  0  0
    3.7871  -12.6033   24.0556 N   0  0  0  0  0  0  0  0  0  0  0  0
    4.3309  -11.9738   22.8870 C   0  0  0  0  0  0  0  0  0  0  0  0
    4.2906  -10.4526   22.9626 C   0  0  1  0  0  0  0  0  0  0  0  0
    4.9639   -9.8667   24.2063 C   0  0  0  0  0  0  0  0  0  0  0  0
    5.5113   -8.4976   23.7988 C   0  0  0  0  0  0  0  0  0  0  0  0
    5.2203   -8.3718   22.3145 C   0  0  2  0  0  0  0  0  0  0  0  0
    4.0285   -7.7412   22.1537 F   0  0  0  0  0  0  0  0  0  0  0  0
    5.0598   -9.7909   21.8211 C   0  0  0  0  0  0  0  0  0  0  0  0
    3.4474  -13.9680   26.0440 C   0  0  0  0  0  0  0  0  0  0  0  0
    3.4790  -14.9290   27.0316 C   0  0  0  0  0  0  0  0  0  0  0  0
    2.2950  -14.9399   27.7286 N   0  0  0  0  0  0  0  0  0  0  0  0
    1.5944  -14.0090   27.1294 C   0  0  0  0  0  0  0  0  0  0  0  0
    2.1993  -13.3851   26.0844 O   0  0  0  0  0  0  0  0  0  0  0  0
  1  2  2  0
  2  3  1  0
  3  4  1  0
  5  4  1  1
  5  6  1  0
  6  7  1  0
  7  8  1  0
  8  9  1  1
  8 10  1  0
  2 11  1  0
 11 12  2  0
 12 13  1  0
 13 14  2  0
 14 15  1  0
 10  5  1  0
 15 11  1  0
M  END
>  <inchikey>  (1418) 
AZGYKBXHRGHFTH-UHFFFAOYSA-N

>  <tags>  (1418) 
fragmenstein_placed,CpKRS_FrAncestor_bulkdock_iter2

>  <ref_pdb>  (1418) 
x0654b

>  <energy_score>  (1418) 
-11.886941

>  <distance_score>  (1418) 
0.329261

>  <HIPPO Pose ID>  (1418) 
60580

>  <ref_mols>  (1418) 
x0502a

>  <smiles>  (1418) 
O=C(NCC1CCC(F)C1)c1cnco1

>  <HIPPO Compound ID>  (1418) 
453009

>  <alias>  (1418) 
AZGYKBXHRGHFTH-UHFFFAOYSA-N-P45

>  <subsites>  (1418) 


>  <placement_batch>  (1418) 
CpKRS_FrAncestor_bulkdock_iter2

>  <name>  (1418) 
AZGYKBXHRGHFTH-UHFFFAOYSA-N-P45

$$$$
PYSGJRQDNHATKR-UHFFFAOYSA-N-P45
     RDKit          3D

 15 16  0  0  0  0  0  0  0  0999 V2000
    5.3921  -13.8002   25.2683 O   0  0  0  0  0  0  0  0  0  0  0  0
    4.3104  -13.4285   25.0448 C   0  0  0  0  0  0  0  0  0  0  0  0
    3.7884  -12.4710   23.9546 N   0  0  0  0  0  0  0  0  0  0  0  0
    4.4718  -11.8467   22.8560 C   0  0  0  0  0  0  0  0  0  0  0  0
    4.3099  -10.3340   22.9045 C   0  0  2  0  0  0  0  0  0  0  0  0
    5.0203   -9.6023   21.7706 C   0  0  0  0  0  0  0  0  0  0  0  0
    5.0041   -8.1658   22.2640 C   0  0  0  0  0  0  0  0  0  0  0  0
    5.3525   -8.2922   23.7368 C   0  0  2  0  0  0  0  0  0  0  0  0
    6.7018   -8.2062   23.8648 F   0  0  0  0  0  0  0  0  0  0  0  0
    4.9037   -9.6866   24.1630 C   0  0  0  0  0  0  0  0  0  0  0  0
    3.2224  -13.8310   25.9268 C   0  0  0  0  0  0  0  0  0  0  0  0
    3.2030  -14.8251   26.8891 C   0  0  0  0  0  0  0  0  0  0  0  0
    2.0356  -14.9121   27.6379 N   0  0  0  0  0  0  0  0  0  0  0  0
    1.1486  -14.0066   27.2593 N   0  0  0  0  0  0  0  0  0  0  0  0
    1.7010  -13.0530   26.0074 S   0  0  0  0  0  0  0  0  0  0  0  0
  1  2  2  0
  2  3  1  0
  3  4  1  0
  5  4  1  1
  5  6  1  0
  6  7  1  0
  7  8  1  0
  8  9  1  6
  8 10  1  0
  2 11  1  0
 11 12  2  0
 12 13  1  0
 13 14  2  0
 14 15  1  0
 10  5  1  0
 15 11  1  0
M  END
>  <inchikey>  (1419) 
PYSGJRQDNHATKR-UHFFFAOYSA-N

>  <tags>  (1419) 
fragmenstein_placed,CpKRS_FrAncestor_bulkdock_iter2

>  <ref_pdb>  (1419) 
x0654b

>  <energy_score>  (1419) 
-24.986624

>  <distance_score>  (1419) 
0.375142

>  <HIPPO Pose ID>  (1419) 
60583

>  <ref_mols>  (1419) 
x0502a

>  <smiles>  (1419) 
O=C(NCC1CCC(F)C1)c1cnns1

>  <HIPPO Compound ID>  (1419) 
219047

>  <alias>  (1419) 
PYSGJRQDNHATKR-UHFFFAOYSA-N-P45

>  <subsites>  (1419) 


>  <placement_batch>  (1419) 
CpKRS_FrAncestor_bulkdock_iter2

>  <name>  (1419) 
PYSGJRQDNHATKR-UHFFFAOYSA-N-P45

$$$$
QBGGUZPKVGPPCR-UHFFFAOYSA-N-P46
     RDKit          3D

 16 17  0  0  0  0  0  0  0  0999 V2000
    5.3703  -13.6762   25.1013 O   0  0  0  0  0  0  0  0  0  0  0  0
    4.2800  -13.3256   24.8937 C   0  0  0  0  0  0  0  0  0  0  0  0
    3.7084  -12.4734   23.7482 N   0  0  0  0  0  0  0  0  0  0  0  0
    4.3691  -11.7967   22.6731 C   0  0  0  0  0  0  0  0  0  0  0  0
    4.9738  -10.5023   23.1786 C   0  0  1  0  0  0  0  0  0  0  0  0
    5.4190   -9.5532   22.0732 C   0  0  0  0  0  0  0  0  0  0  0  0
    5.4656   -8.1795   22.7407 C   0  0  0  0  0  0  0  0  0  0  0  0
    4.7469   -8.3354   24.0762 C   0  0  2  0  0  0  0  0  0  0  0  0
    5.6781   -8.4568   25.0631 F   0  0  0  0  0  0  0  0  0  0  0  0
    3.9918   -9.6383   23.9670 C   0  0  0  0  0  0  0  0  0  0  0  0
    3.1862  -13.6298   25.7995 C   0  0  0  0  0  0  0  0  0  0  0  0
    2.0301  -12.8735   25.7497 O   0  0  0  0  0  0  0  0  0  0  0  0
    1.2899  -13.3404   26.7893 C   0  0  0  0  0  0  0  0  0  0  0  0
    1.8007  -14.3570   27.4386 N   0  0  0  0  0  0  0  0  0  0  0  0
    3.0187  -14.5362   26.8200 C   0  0  0  0  0  0  0  0  0  0  0  0
    4.2380  -15.8469   27.3574 Br  0  0  0  0  0  0  0  0  0  0  0  0
  1  2  2  0
  2  3  1  0
  3  4  1  0
  5  4  1  6
  5  6  1  0
  6  7  1  0
  7  8  1  0
  8  9  1  1
  8 10  1  0
  2 11  1  0
 11 12  1  0
 12 13  1  0
 13 14  2  0
 14 15  1  0
 15 16  1  0
 10  5  1  0
 15 11  2  0
M  END
>  <inchikey>  (1420) 
QBGGUZPKVGPPCR-UHFFFAOYSA-N

>  <tags>  (1420) 
fragmenstein_placed,CpKRS_FrAncestor_bulkdock_iter2

>  <ref_pdb>  (1420) 
x0654b

>  <energy_score>  (1420) 
-8.73094

>  <distance_score>  (1420) 
0.51946

>  <HIPPO Pose ID>  (1420) 
60588

>  <ref_mols>  (1420) 
x0502c

>  <smiles>  (1420) 
O=C(NCC1CCC(F)C1)c1ocnc1Br

>  <HIPPO Compound ID>  (1420) 
453010

>  <alias>  (1420) 
QBGGUZPKVGPPCR-UHFFFAOYSA-N-P46

>  <subsites>  (1420) 


>  <placement_batch>  (1420) 
CpKRS_FrAncestor_bulkdock_iter2

>  <name>  (1420) 
QBGGUZPKVGPPCR-UHFFFAOYSA-N-P46

$$$$
BNRNBRIJLZKCDT-UHFFFAOYSA-N-P44
     RDKit          3D

 16 17  0  0  0  0  0  0  0  0999 V2000
  -11.5406  -11.9272   45.6692 O   0  0  0  0  0  0  0  0  0  0  0  0
  -11.0744  -12.8272   46.2457 C   0  0  0  0  0  0  0  0  0  0  0  0
  -11.5446  -14.2928   46.3600 N   0  0  0  0  0  0  0  0  0  0  0  0
  -12.6346  -14.9803   45.7119 C   0  0  0  0  0  0  0  0  0  0  0  0
  -12.4173  -15.1298   44.1998 C   0  0  2  0  0  0  0  0  0  0  0  0
  -13.7057  -15.5082   43.4668 C   0  0  0  0  0  0  0  0  0  0  0  0
  -13.8137  -17.0244   43.5879 C   0  0  0  0  0  0  0  0  0  0  0  0
  -12.3953  -17.5210   43.8286 C   0  0  2  0  0  0  0  0  0  0  0  0
  -12.3420  -18.0943   45.0616 F   0  0  0  0  0  0  0  0  0  0  0  0
  -11.4959  -16.2952   43.8377 C   0  0  0  0  0  0  0  0  0  0  0  0
   -9.8846  -12.6031   47.0605 C   0  0  0  0  0  0  0  0  0  0  0  0
   -9.1554  -11.4717   46.7811 O   0  0  0  0  0  0  0  0  0  0  0  0
   -8.0774  -11.3689   47.6496 N   0  0  0  0  0  0  0  0  0  0  0  0
   -8.1670  -12.4358   48.4449 C   0  0  0  0  0  0  0  0  0  0  0  0
   -9.2786  -13.2259   48.1257 C   0  0  0  0  0  0  0  0  0  0  0  0
   -9.7556  -14.7581   49.0828 Br  0  0  0  0  0  0  0  0  0  0  0  0
  1  2  2  0
  2  3  1  0
  3  4  1  0
  5  4  1  1
  5  6  1  0
  6  7  1  0
  7  8  1  0
  8  9  1  1
  8 10  1  0
  2 11  1  0
 11 12  1  0
 12 13  1  0
 13 14  2  0
 14 15  1  0
 15 16  1  0
 10  5  1  0
 15 11  2  0
M  END
>  <inchikey>  (1421) 
BNRNBRIJLZKCDT-UHFFFAOYSA-N

>  <tags>  (1421) 
fragmenstein_placed,CpKRS_FrAncestor_bulkdock_iter2

>  <ref_pdb>  (1421) 
x0654b

>  <energy_score>  (1421) 
-8.316955

>  <distance_score>  (1421) 
0.356779

>  <HIPPO Pose ID>  (1421) 
60590

>  <ref_mols>  (1421) 
x0502b

>  <smiles>  (1421) 
O=C(NCC1CCC(F)C1)c1oncc1Br

>  <HIPPO Compound ID>  (1421) 
453011

>  <alias>  (1421) 
BNRNBRIJLZKCDT-UHFFFAOYSA-N-P44

>  <subsites>  (1421) 


>  <placement_batch>  (1421) 
CpKRS_FrAncestor_bulkdock_iter2

>  <name>  (1421) 
BNRNBRIJLZKCDT-UHFFFAOYSA-N-P44

$$$$
VTLLOVXVDPZZLS-UHFFFAOYSA-N-P58
     RDKit          3D

 19 20  0  0  0  0  0  0  0  0999 V2000
    5.5703  -13.8482   25.3204 O   0  0  0  0  0  0  0  0  0  0  0  0
    4.4356  -14.0427   25.1354 C   0  0  0  0  0  0  0  0  0  0  0  0
    3.4888  -13.4879   24.0475 N   0  0  0  0  0  0  0  0  0  0  0  0
    3.7615  -12.6581   22.9118 C   0  0  0  0  0  0  0  0  0  0  0  0
    4.2067  -11.2469   23.2123 C   0  0  0  0  0  0  0  0  0  0  0  0
    3.8637  -10.5619   24.3842 C   0  0  0  0  0  0  0  0  0  0  0  0
    4.3367   -9.2639   24.6098 C   0  0  0  0  0  0  0  0  0  0  0  0
    5.1392   -8.6443   23.6593 C   0  0  0  0  0  0  0  0  0  0  0  0
    5.6102   -7.4120   23.8913 F   0  0  0  0  0  0  0  0  0  0  0  0
    5.4477   -9.2823   22.4691 C   0  0  0  0  0  0  0  0  0  0  0  0
    4.9804  -10.5770   22.2481 C   0  0  0  0  0  0  0  0  0  0  0  0
    3.5878  -15.0631   25.9464 C   0  0  1  0  0  0  0  0  0  0  0  0
    4.3189  -15.4851   27.2127 C   0  0  0  0  0  0  0  0  0  0  0  0
    3.3391  -16.0648   28.1853 C   0  0  0  0  0  0  0  0  0  0  0  0
    2.8327  -17.2033   27.6564 F   0  0  0  0  0  0  0  0  0  0  0  0
    3.9597  -16.4442   29.3317 F   0  0  0  0  0  0  0  0  0  0  0  0
    2.2001  -15.1341   28.5283 C   0  0  0  0  0  0  0  0  0  0  0  0
    1.9595  -14.1288   27.4185 C   0  0  0  0  0  0  0  0  0  0  0  0
    2.2164  -14.6883   26.1427 O   0  0  0  0  0  0  0  0  0  0  0  0
  1  2  2  0
  2  3  1  0
  3  4  1  0
  4  5  1  0
  5  6  2  0
  6  7  1  0
  7  8  2  0
  8  9  1  0
  8 10  1  0
 10 11  2  0
 12  2  1  1
 12 13  1  0
 13 14  1  0
 14 15  1  0
 14 16  1  0
 14 17  1  0
 17 18  1  0
 18 19  1  0
 11  5  1  0
 19 12  1  0
M  END
>  <inchikey>  (1422) 
VTLLOVXVDPZZLS-UHFFFAOYSA-N

>  <tags>  (1422) 
fragmenstein_placed,CpKRS_FrAncestor_bulkdock_iter2

>  <ref_pdb>  (1422) 
x0654b

>  <energy_score>  (1422) 
-6.903073

>  <distance_score>  (1422) 
0.441903

>  <HIPPO Pose ID>  (1422) 
60594

>  <ref_mols>  (1422) 
x0654c

>  <smiles>  (1422) 
O=C(NCc1ccc(F)cc1)C1CC(F)(F)CCO1

>  <HIPPO Compound ID>  (1422) 
405337

>  <alias>  (1422) 
VTLLOVXVDPZZLS-UHFFFAOYSA-N-P58

>  <subsites>  (1422) 


>  <placement_batch>  (1422) 
CpKRS_FrAncestor_bulkdock_iter2

>  <name>  (1422) 
VTLLOVXVDPZZLS-UHFFFAOYSA-N-P58

$$$$
UBYSQEXMRGYUOP-UHFFFAOYSA-N-P56
     RDKit          3D

 17 18  0  0  0  0  0  0  0  0999 V2000
    5.4254  -14.0508   25.2900 O   0  0  0  0  0  0  0  0  0  0  0  0
    4.2644  -14.0135   25.2049 C   0  0  0  0  0  0  0  0  0  0  0  0
    3.3618  -13.3210   24.1686 N   0  0  0  0  0  0  0  0  0  0  0  0
    3.6962  -12.6104   22.9695 C   0  0  0  0  0  0  0  0  0  0  0  0
    4.1757  -11.1972   23.2125 C   0  0  0  0  0  0  0  0  0  0  0  0
    5.0182  -10.5947   22.2651 C   0  0  0  0  0  0  0  0  0  0  0  0
    5.5095   -9.3030   22.4613 C   0  0  0  0  0  0  0  0  0  0  0  0
    5.1612   -8.6033   23.6078 C   0  0  0  0  0  0  0  0  0  0  0  0
    5.6564   -7.3751   23.8100 F   0  0  0  0  0  0  0  0  0  0  0  0
    4.2908   -9.1557   24.5374 C   0  0  0  0  0  0  0  0  0  0  0  0
    3.7906  -10.4458   24.3340 C   0  0  0  0  0  0  0  0  0  0  0  0
    3.3915  -14.6601   26.2418 C   0  0  0  0  0  0  0  0  0  0  0  0
    2.3407  -14.0353   26.8054 C   0  0  0  0  0  0  0  0  0  0  0  0
    1.5554  -14.6302   27.9374 C   0  0  0  0  0  0  0  0  0  0  0  0
    1.9044  -15.9841   28.2257 O   0  0  0  0  0  0  0  0  0  0  0  0
    3.3150  -16.1944   28.1874 C   0  0  0  0  0  0  0  0  0  0  0  0
    3.8483  -15.9872   26.7727 C   0  0  0  0  0  0  0  0  0  0  0  0
  1  2  2  0
  2  3  1  0
  3  4  1  0
  4  5  1  0
  5  6  2  0
  6  7  1  0
  7  8  2  0
  8  9  1  0
  8 10  1  0
 10 11  2  0
  2 12  1  0
 12 13  2  0
 13 14  1  0
 14 15  1  0
 15 16  1  0
 16 17  1  0
 11  5  1  0
 17 12  1  0
M  END
>  <inchikey>  (1423) 
UBYSQEXMRGYUOP-UHFFFAOYSA-N

>  <tags>  (1423) 
fragmenstein_placed,CpKRS_FrAncestor_bulkdock_iter2

>  <ref_pdb>  (1423) 
x0654b

>  <energy_score>  (1423) 
-8.297435

>  <distance_score>  (1423) 
0.427852

>  <HIPPO Pose ID>  (1423) 
60595

>  <ref_mols>  (1423) 
x0654a

>  <smiles>  (1423) 
O=C(NCc1ccc(F)cc1)C1=CCOCC1

>  <HIPPO Compound ID>  (1423) 
453012

>  <alias>  (1423) 
UBYSQEXMRGYUOP-UHFFFAOYSA-N-P56

>  <subsites>  (1423) 


>  <placement_batch>  (1423) 
CpKRS_FrAncestor_bulkdock_iter2

>  <name>  (1423) 
UBYSQEXMRGYUOP-UHFFFAOYSA-N-P56

$$$$
HKNNCHNTJPLQPT-UHFFFAOYSA-N-P45
     RDKit          3D

 16 17  0  0  0  0  0  0  0  0999 V2000
    5.5115  -13.7100   25.3114 O   0  0  0  0  0  0  0  0  0  0  0  0
    4.4072  -13.4506   25.0461 C   0  0  0  0  0  0  0  0  0  0  0  0
    3.8303  -12.6021   23.8998 N   0  0  0  0  0  0  0  0  0  0  0  0
    4.4809  -11.9740   22.7875 C   0  0  0  0  0  0  0  0  0  0  0  0
    4.3306  -10.4650   22.8658 C   0  0  1  0  0  0  0  0  0  0  0  0
    4.9027   -9.8344   24.1468 C   0  0  0  0  0  0  0  0  0  0  0  0
    5.3697   -8.4299   23.7545 C   0  0  0  0  0  0  0  0  0  0  0  0
    4.9868   -8.3054   22.2959 C   0  0  0  0  0  0  0  0  0  0  0  0
    5.7577   -7.4393   21.6265 F   0  0  0  0  0  0  0  0  0  0  0  0
    3.7109   -7.8722   22.1852 F   0  0  0  0  0  0  0  0  0  0  0  0
    5.0575   -9.7108   21.7564 C   0  0  0  0  0  0  0  0  0  0  0  0
    3.3322  -13.8999   25.9325 C   0  0  0  0  0  0  0  0  0  0  0  0
    3.3690  -14.8991   26.8870 C   0  0  0  0  0  0  0  0  0  0  0  0
    2.1344  -14.9633   27.5877 C   0  0  0  0  0  0  0  0  0  0  0  0
    1.1868  -14.0926   27.2405 N   0  0  0  0  0  0  0  0  0  0  0  0
    1.7897  -13.1628   26.0049 S   0  0  0  0  0  0  0  0  0  0  0  0
  1  2  2  0
  2  3  1  0
  3  4  1  0
  5  4  1  1
  5  6  1  0
  6  7  1  0
  7  8  1  0
  8  9  1  0
  8 10  1  0
  8 11  1  0
  2 12  1  0
 12 13  2  0
 13 14  1  0
 14 15  2  0
 15 16  1  0
 11  5  1  0
 16 12  1  0
M  END
>  <inchikey>  (1424) 
HKNNCHNTJPLQPT-UHFFFAOYSA-N

>  <tags>  (1424) 
fragmenstein_placed,CpKRS_FrAncestor_bulkdock_iter2

>  <ref_pdb>  (1424) 
x0654b

>  <energy_score>  (1424) 
-17.833059

>  <distance_score>  (1424) 
0.338156

>  <HIPPO Pose ID>  (1424) 
60619

>  <ref_mols>  (1424) 
x0502a

>  <smiles>  (1424) 
O=C(NCC1CCC(F)(F)C1)c1ccns1

>  <HIPPO Compound ID>  (1424) 
453014

>  <alias>  (1424) 
HKNNCHNTJPLQPT-UHFFFAOYSA-N-P45

>  <subsites>  (1424) 


>  <placement_batch>  (1424) 
CpKRS_FrAncestor_bulkdock_iter2

>  <name>  (1424) 
HKNNCHNTJPLQPT-UHFFFAOYSA-N-P45

$$$$
DFZJOTCFLOFQQT-UHFFFAOYSA-N-P44
     RDKit          3D

 16 17  0  0  0  0  0  0  0  0999 V2000
  -10.9087  -12.1377   45.0215 O   0  0  0  0  0  0  0  0  0  0  0  0
  -10.7485  -12.9049   45.8835 C   0  0  0  0  0  0  0  0  0  0  0  0
  -11.4808  -14.2195   46.1958 N   0  0  0  0  0  0  0  0  0  0  0  0
  -12.6291  -14.8234   45.5688 C   0  0  0  0  0  0  0  0  0  0  0  0
  -12.3477  -15.2532   44.1209 C   0  0  1  0  0  0  0  0  0  0  0  0
  -11.4884  -16.5298   44.0547 C   0  0  0  0  0  0  0  0  0  0  0  0
  -12.4075  -17.6653   43.6003 C   0  0  0  0  0  0  0  0  0  0  0  0
  -13.8036  -17.0957   43.6901 C   0  0  0  0  0  0  0  0  0  0  0  0
  -14.6537  -17.7011   42.8423 F   0  0  0  0  0  0  0  0  0  0  0  0
  -14.2927  -17.2474   44.9419 F   0  0  0  0  0  0  0  0  0  0  0  0
  -13.6335  -15.6275   43.3751 C   0  0  0  0  0  0  0  0  0  0  0  0
   -9.7445  -12.6087   46.8922 C   0  0  0  0  0  0  0  0  0  0  0  0
   -9.3105  -13.2186   48.0547 C   0  0  0  0  0  0  0  0  0  0  0  0
   -8.3387  -12.4749   48.6834 N   0  0  0  0  0  0  0  0  0  0  0  0
   -8.1388  -11.4418   47.9018 C   0  0  0  0  0  0  0  0  0  0  0  0
   -8.9551  -11.4800   46.8132 N   0  0  0  0  0  0  0  0  0  0  0  0
  1  2  2  0
  2  3  1  0
  3  4  1  0
  5  4  1  1
  5  6  1  0
  6  7  1  0
  7  8  1  0
  8  9  1  0
  8 10  1  0
  8 11  1  0
  2 12  1  0
 12 13  2  0
 13 14  1  0
 14 15  2  0
 15 16  1  0
 11  5  1  0
 16 12  1  0
M  END
>  <inchikey>  (1425) 
DFZJOTCFLOFQQT-UHFFFAOYSA-N

>  <tags>  (1425) 
fragmenstein_placed,CpKRS_FrAncestor_bulkdock_iter2

>  <ref_pdb>  (1425) 
x0654b

>  <energy_score>  (1425) 
-20.661476

>  <distance_score>  (1425) 
0.534273

>  <HIPPO Pose ID>  (1425) 
60623

>  <ref_mols>  (1425) 
x0502b

>  <smiles>  (1425) 
O=C(NCC1CCC(F)(F)C1)c1cnc[nH]1

>  <HIPPO Compound ID>  (1425) 
453015

>  <alias>  (1425) 
DFZJOTCFLOFQQT-UHFFFAOYSA-N-P44

>  <subsites>  (1425) 


>  <placement_batch>  (1425) 
CpKRS_FrAncestor_bulkdock_iter2

>  <name>  (1425) 
DFZJOTCFLOFQQT-UHFFFAOYSA-N-P44

$$$$
MRDPEFJTSZFAIZ-UHFFFAOYSA-N-P45
     RDKit          3D

 16 17  0  0  0  0  0  0  0  0999 V2000
    5.6520  -13.8328   25.2822 O   0  0  0  0  0  0  0  0  0  0  0  0
    4.5345  -13.5465   25.1199 C   0  0  0  0  0  0  0  0  0  0  0  0
    3.8774  -12.6630   24.0445 N   0  0  0  0  0  0  0  0  0  0  0  0
    4.4421  -12.0240   22.8898 C   0  0  0  0  0  0  0  0  0  0  0  0
    4.2985  -10.5120   22.9523 C   0  0  1  0  0  0  0  0  0  0  0  0
    4.9093   -9.8644   24.2048 C   0  0  0  0  0  0  0  0  0  0  0  0
    5.3732   -8.4673   23.7828 C   0  0  0  0  0  0  0  0  0  0  0  0
    4.9687   -8.3640   22.3290 C   0  0  0  0  0  0  0  0  0  0  0  0
    5.7442   -7.5239   21.6309 F   0  0  0  0  0  0  0  0  0  0  0  0
    3.6989   -7.9100   22.2308 F   0  0  0  0  0  0  0  0  0  0  0  0
    5.0081   -9.7801   21.8143 C   0  0  0  0  0  0  0  0  0  0  0  0
    3.5109  -14.0090   26.0396 C   0  0  0  0  0  0  0  0  0  0  0  0
    3.5315  -14.9573   27.0397 C   0  0  0  0  0  0  0  0  0  0  0  0
    2.3354  -14.9684   27.7157 N   0  0  0  0  0  0  0  0  0  0  0  0
    1.6380  -14.0511   27.0922 C   0  0  0  0  0  0  0  0  0  0  0  0
    2.2579  -13.4342   26.0514 O   0  0  0  0  0  0  0  0  0  0  0  0
  1  2  2  0
  2  3  1  0
  3  4  1  0
  5  4  1  1
  5  6  1  0
  6  7  1  0
  7  8  1  0
  8  9  1  0
  8 10  1  0
  8 11  1  0
  2 12  1  0
 12 13  2  0
 13 14  1  0
 14 15  2  0
 15 16  1  0
 11  5  1  0
 16 12  1  0
M  END
>  <inchikey>  (1426) 
MRDPEFJTSZFAIZ-UHFFFAOYSA-N

>  <tags>  (1426) 
fragmenstein_placed,CpKRS_FrAncestor_bulkdock_iter2

>  <ref_pdb>  (1426) 
x0654b

>  <energy_score>  (1426) 
-38.598953

>  <distance_score>  (1426) 
0.376357

>  <HIPPO Pose ID>  (1426) 
60625

>  <ref_mols>  (1426) 
x0502a

>  <smiles>  (1426) 
O=C(NCC1CCC(F)(F)C1)c1cnco1

>  <HIPPO Compound ID>  (1426) 
453016

>  <alias>  (1426) 
MRDPEFJTSZFAIZ-UHFFFAOYSA-N-P45

>  <subsites>  (1426) 


>  <placement_batch>  (1426) 
CpKRS_FrAncestor_bulkdock_iter2

>  <name>  (1426) 
MRDPEFJTSZFAIZ-UHFFFAOYSA-N-P45

$$$$
CJHITKLALJDJFL-UHFFFAOYSA-N-P45
     RDKit          3D

 16 17  0  0  0  0  0  0  0  0999 V2000
    5.4055  -13.7684   25.2728 O   0  0  0  0  0  0  0  0  0  0  0  0
    4.3000  -13.4818   25.0414 C   0  0  0  0  0  0  0  0  0  0  0  0
    3.7111  -12.5900   23.9307 N   0  0  0  0  0  0  0  0  0  0  0  0
    4.3481  -11.9423   22.8188 C   0  0  0  0  0  0  0  0  0  0  0  0
    4.2366  -10.4326   22.9767 C   0  0  2  0  0  0  0  0  0  0  0  0
    4.9432   -9.6203   21.8943 C   0  0  0  0  0  0  0  0  0  0  0  0
    5.1852   -8.2467   22.5283 C   0  0  0  0  0  0  0  0  0  0  0  0
    4.9420   -8.4333   24.0165 C   0  0  0  0  0  0  0  0  0  0  0  0
    5.8729   -7.8179   24.7646 F   0  0  0  0  0  0  0  0  0  0  0  0
    3.7392   -7.9052   24.3632 F   0  0  0  0  0  0  0  0  0  0  0  0
    4.9069   -9.9201   24.2492 C   0  0  0  0  0  0  0  0  0  0  0  0
    3.2436  -13.9128   25.9468 C   0  0  0  0  0  0  0  0  0  0  0  0
    3.2670  -14.9002   26.9149 C   0  0  0  0  0  0  0  0  0  0  0  0
    2.1201  -15.0035   27.6928 N   0  0  0  0  0  0  0  0  0  0  0  0
    1.2103  -14.1118   27.3360 N   0  0  0  0  0  0  0  0  0  0  0  0
    1.7129  -13.1555   26.0662 S   0  0  0  0  0  0  0  0  0  0  0  0
  1  2  2  0
  2  3  1  0
  3  4  1  0
  5  4  1  6
  5  6  1  0
  6  7  1  0
  7  8  1  0
  8  9  1  0
  8 10  1  0
  8 11  1  0
  2 12  1  0
 12 13  2  0
 13 14  1  0
 14 15  2  0
 15 16  1  0
 11  5  1  0
 16 12  1  0
M  END
>  <inchikey>  (1427) 
CJHITKLALJDJFL-UHFFFAOYSA-N

>  <tags>  (1427) 
fragmenstein_placed,CpKRS_FrAncestor_bulkdock_iter2

>  <ref_pdb>  (1427) 
x0654b

>  <energy_score>  (1427) 
-61.577452

>  <distance_score>  (1427) 
0.330395

>  <HIPPO Pose ID>  (1427) 
60628

>  <ref_mols>  (1427) 
x0502a

>  <smiles>  (1427) 
O=C(NCC1CCC(F)(F)C1)c1cnns1

>  <HIPPO Compound ID>  (1427) 
218604

>  <alias>  (1427) 
CJHITKLALJDJFL-UHFFFAOYSA-N-P45

>  <subsites>  (1427) 


>  <placement_batch>  (1427) 
CpKRS_FrAncestor_bulkdock_iter2

>  <name>  (1427) 
CJHITKLALJDJFL-UHFFFAOYSA-N-P45

$$$$
AJWRTVQBVIXSKP-UHFFFAOYSA-N-P45
     RDKit          3D

 17 18  0  0  0  0  0  0  0  0999 V2000
    5.5113  -13.4175   25.2577 O   0  0  0  0  0  0  0  0  0  0  0  0
    4.4080  -13.2875   24.9143 C   0  0  0  0  0  0  0  0  0  0  0  0
    3.8279  -12.6130   23.6600 N   0  0  0  0  0  0  0  0  0  0  0  0
    4.4751  -11.8768   22.6164 C   0  0  0  0  0  0  0  0  0  0  0  0
    4.3057  -10.3853   22.8757 C   0  0  2  0  0  0  0  0  0  0  0  0
    5.0139   -9.4824   21.8684 C   0  0  0  0  0  0  0  0  0  0  0  0
    5.2627   -8.1659   22.6129 C   0  0  0  0  0  0  0  0  0  0  0  0
    4.9043   -8.4366   24.0630 C   0  0  0  0  0  0  0  0  0  0  0  0
    3.6603   -7.9622   24.3344 F   0  0  0  0  0  0  0  0  0  0  0  0
    5.7476   -7.8357   24.9184 F   0  0  0  0  0  0  0  0  0  0  0  0
    4.9032   -9.9346   24.2081 C   0  0  0  0  0  0  0  0  0  0  0  0
    3.3181  -13.7223   25.8004 C   0  0  0  0  0  0  0  0  0  0  0  0
    2.0952  -13.0741   25.9267 C   0  0  0  0  0  0  0  0  0  0  0  0
    1.1810  -13.8186   27.1475 S   0  0  0  0  0  0  0  0  0  0  0  0
    2.3038  -14.9453   27.5552 N   0  0  0  0  0  0  0  0  0  0  0  0
    3.3773  -14.7643   26.7857 C   0  0  0  0  0  0  0  0  0  0  0  0
    4.7261  -15.7542   27.0857 Cl  0  0  0  0  0  0  0  0  0  0  0  0
  1  2  2  0
  2  3  1  0
  3  4  1  0
  5  4  1  6
  5  6  1  0
  6  7  1  0
  7  8  1  0
  8  9  1  0
  8 10  1  0
  8 11  1  0
  2 12  1  0
 12 13  2  0
 13 14  1  0
 14 15  1  0
 15 16  2  0
 16 17  1  0
 11  5  1  0
 16 12  1  0
M  END
>  <inchikey>  (1428) 
AJWRTVQBVIXSKP-UHFFFAOYSA-N

>  <tags>  (1428) 
fragmenstein_placed,CpKRS_FrAncestor_bulkdock_iter2

>  <ref_pdb>  (1428) 
x0654b

>  <energy_score>  (1428) 
-11.796207

>  <distance_score>  (1428) 
0.40863

>  <HIPPO Pose ID>  (1428) 
60631

>  <ref_mols>  (1428) 
x0502a

>  <smiles>  (1428) 
O=C(NCC1CCC(F)(F)C1)c1csnc1Cl

>  <HIPPO Compound ID>  (1428) 
166281

>  <alias>  (1428) 
AJWRTVQBVIXSKP-UHFFFAOYSA-N-P45

>  <subsites>  (1428) 


>  <placement_batch>  (1428) 
CpKRS_FrAncestor_bulkdock_iter2

>  <name>  (1428) 
AJWRTVQBVIXSKP-UHFFFAOYSA-N-P45

$$$$
DOXWKQQLXVDUIO-UHFFFAOYSA-N-P44
     RDKit          3D

 17 18  0  0  0  0  0  0  0  0999 V2000
  -11.1393  -11.9107   45.3294 O   0  0  0  0  0  0  0  0  0  0  0  0
  -10.8814  -12.7576   46.0858 C   0  0  0  0  0  0  0  0  0  0  0  0
  -11.6012  -14.0812   46.3810 N   0  0  0  0  0  0  0  0  0  0  0  0
  -12.7388  -14.6896   45.7430 C   0  0  0  0  0  0  0  0  0  0  0  0
  -12.4970  -15.0247   44.2637 C   0  0  2  0  0  0  0  0  0  0  0  0
  -13.7985  -15.4706   43.5808 C   0  0  0  0  0  0  0  0  0  0  0  0
  -13.8300  -16.9743   43.7961 C   0  0  0  0  0  0  0  0  0  0  0  0
  -12.3899  -17.3566   43.5513 C   0  0  0  0  0  0  0  0  0  0  0  0
  -12.0834  -18.5238   44.1414 F   0  0  0  0  0  0  0  0  0  0  0  0
  -12.1802  -17.4955   42.2209 F   0  0  0  0  0  0  0  0  0  0  0  0
  -11.5400  -16.2181   44.0897 C   0  0  0  0  0  0  0  0  0  0  0  0
   -9.7608  -12.5540   46.9862 C   0  0  0  0  0  0  0  0  0  0  0  0
   -8.9297  -11.4723   46.8117 N   0  0  0  0  0  0  0  0  0  0  0  0
   -7.9651  -11.3470   47.7398 N   0  0  0  0  0  0  0  0  0  0  0  0
   -8.1511  -12.4194   48.5123 C   0  0  0  0  0  0  0  0  0  0  0  0
   -9.2536  -13.1943   48.1001 C   0  0  0  0  0  0  0  0  0  0  0  0
   -9.7845  -14.5918   48.9013 Cl  0  0  0  0  0  0  0  0  0  0  0  0
  1  2  2  0
  2  3  1  0
  3  4  1  0
  5  4  1  1
  5  6  1  0
  6  7  1  0
  7  8  1  0
  8  9  1  0
  8 10  1  0
  8 11  1  0
  2 12  1  0
 12 13  1  0
 13 14  1  0
 14 15  2  0
 15 16  1  0
 16 17  1  0
 11  5  1  0
 16 12  2  0
M  END
>  <inchikey>  (1429) 
DOXWKQQLXVDUIO-UHFFFAOYSA-N

>  <tags>  (1429) 
fragmenstein_placed,CpKRS_FrAncestor_bulkdock_iter2

>  <ref_pdb>  (1429) 
x0654b

>  <energy_score>  (1429) 
-5.200523

>  <distance_score>  (1429) 
0.502349

>  <HIPPO Pose ID>  (1429) 
60635

>  <ref_mols>  (1429) 
x0502b

>  <smiles>  (1429) 
O=C(NCC1CCC(F)(F)C1)c1[nH]ncc1Cl

>  <HIPPO Compound ID>  (1429) 
166284

>  <alias>  (1429) 
DOXWKQQLXVDUIO-UHFFFAOYSA-N-P44

>  <subsites>  (1429) 


>  <placement_batch>  (1429) 
CpKRS_FrAncestor_bulkdock_iter2

>  <name>  (1429) 
DOXWKQQLXVDUIO-UHFFFAOYSA-N-P44

$$$$
HUPPRLOALVAJHD-UHFFFAOYSA-N-P45
     RDKit          3D

 17 18  0  0  0  0  0  0  0  0999 V2000
    5.7137  -13.7026   25.2607 O   0  0  0  0  0  0  0  0  0  0  0  0
    4.5852  -13.5056   25.0507 C   0  0  0  0  0  0  0  0  0  0  0  0
    3.9016  -12.7691   23.8852 N   0  0  0  0  0  0  0  0  0  0  0  0
    4.4643  -12.0406   22.7853 C   0  0  0  0  0  0  0  0  0  0  0  0
    4.3164  -10.5362   22.9333 C   0  0  1  0  0  0  0  0  0  0  0  0
    4.9448   -9.9463   24.2031 C   0  0  0  0  0  0  0  0  0  0  0  0
    5.4094   -8.5333   23.8356 C   0  0  0  0  0  0  0  0  0  0  0  0
    4.9782   -8.3625   22.3958 C   0  0  0  0  0  0  0  0  0  0  0  0
    5.7402   -7.4915   21.7209 F   0  0  0  0  0  0  0  0  0  0  0  0
    3.7067   -7.9061   22.3459 F   0  0  0  0  0  0  0  0  0  0  0  0
    5.0046   -9.7523   21.8159 C   0  0  0  0  0  0  0  0  0  0  0  0
    3.5626  -13.9837   25.9676 C   0  0  0  0  0  0  0  0  0  0  0  0
    2.2960  -13.4331   25.9414 O   0  0  0  0  0  0  0  0  0  0  0  0
    1.5900  -14.0255   26.9432 C   0  0  0  0  0  0  0  0  0  0  0  0
    2.3518  -14.9638   27.5978 C   0  0  0  0  0  0  0  0  0  0  0  0
    3.6058  -14.9269   26.9660 C   0  0  0  0  0  0  0  0  0  0  0  0
    4.6591  -15.6778   27.3036 F   0  0  0  0  0  0  0  0  0  0  0  0
  1  2  2  0
  2  3  1  0
  3  4  1  0
  5  4  1  6
  5  6  1  0
  6  7  1  0
  7  8  1  0
  8  9  1  0
  8 10  1  0
  8 11  1  0
  2 12  1  0
 12 13  1  0
 13 14  1  0
 14 15  2  0
 15 16  1  0
 16 17  1  0
 11  5  1  0
 16 12  2  0
M  END
>  <inchikey>  (1430) 
HUPPRLOALVAJHD-UHFFFAOYSA-N

>  <tags>  (1430) 
fragmenstein_placed,CpKRS_FrAncestor_bulkdock_iter2

>  <ref_pdb>  (1430) 
x0654b

>  <energy_score>  (1430) 
-12.698262

>  <distance_score>  (1430) 
0.40823

>  <HIPPO Pose ID>  (1430) 
60637

>  <ref_mols>  (1430) 
x0502a

>  <smiles>  (1430) 
O=C(NCC1CCC(F)(F)C1)c1occc1F

>  <HIPPO Compound ID>  (1430) 
237078

>  <alias>  (1430) 
HUPPRLOALVAJHD-UHFFFAOYSA-N-P45

>  <subsites>  (1430) 


>  <placement_batch>  (1430) 
CpKRS_FrAncestor_bulkdock_iter2

>  <name>  (1430) 
HUPPRLOALVAJHD-UHFFFAOYSA-N-P45

$$$$
DLIDXBQMPXCXLC-UHFFFAOYSA-N-P45
     RDKit          3D

 20 21  0  0  0  0  0  0  0  0999 V2000
    5.4316  -13.8891   25.1987 O   0  0  0  0  0  0  0  0  0  0  0  0
    4.3307  -13.5506   25.0279 C   0  0  0  0  0  0  0  0  0  0  0  0
    3.7153  -12.6804   23.9164 N   0  0  0  0  0  0  0  0  0  0  0  0
    4.3395  -11.9667   22.8357 C   0  0  0  0  0  0  0  0  0  0  0  0
    4.2095  -10.4611   23.0203 C   0  0  2  0  0  0  0  0  0  0  0  0
    4.9104   -9.6302   21.9440 C   0  0  0  0  0  0  0  0  0  0  0  0
    5.2107   -8.2797   22.6042 C   0  0  0  0  0  0  0  0  0  0  0  0
    4.9065   -8.4705   24.0791 C   0  0  0  0  0  0  0  0  0  0  0  0
    5.8037   -7.8588   24.8699 F   0  0  0  0  0  0  0  0  0  0  0  0
    3.6897   -7.9463   24.3799 F   0  0  0  0  0  0  0  0  0  0  0  0
    4.8681   -9.9596   24.2993 C   0  0  0  0  0  0  0  0  0  0  0  0
    3.2851  -13.9032   25.9738 C   0  0  0  0  0  0  0  0  0  0  0  0
    2.0879  -13.2208   25.9451 O   0  0  0  0  0  0  0  0  0  0  0  0
    1.3939  -13.7240   26.9937 C   0  0  0  0  0  0  0  0  0  0  0  0
    1.9888  -14.6758   27.6654 N   0  0  0  0  0  0  0  0  0  0  0  0
    3.2209  -14.8104   27.0170 C   0  0  0  0  0  0  0  0  0  0  0  0
    4.2405  -15.8000   27.4500 C   0  0  0  0  0  0  0  0  0  0  0  0
    4.0092  -16.2221   28.7314 F   0  0  0  0  0  0  0  0  0  0  0  0
    5.5145  -15.3338   27.4447 F   0  0  0  0  0  0  0  0  0  0  0  0
    4.2361  -16.9191   26.6907 F   0  0  0  0  0  0  0  0  0  0  0  0
  1  2  2  0
  2  3  1  0
  3  4  1  0
  5  4  1  6
  5  6  1  0
  6  7  1  0
  7  8  1  0
  8  9  1  0
  8 10  1  0
  8 11  1  0
  2 12  1  0
 12 13  1  0
 13 14  1  0
 14 15  2  0
 15 16  1  0
 16 17  1  0
 17 18  1  0
 17 19  1  0
 17 20  1  0
 11  5  1  0
 16 12  2  0
M  END
>  <inchikey>  (1431) 
DLIDXBQMPXCXLC-UHFFFAOYSA-N

>  <tags>  (1431) 
fragmenstein_placed,CpKRS_FrAncestor_bulkdock_iter2

>  <ref_pdb>  (1431) 
x0654b

>  <energy_score>  (1431) 
-9.874974

>  <distance_score>  (1431) 
0.417296

>  <HIPPO Pose ID>  (1431) 
60640

>  <ref_mols>  (1431) 
x0502a

>  <smiles>  (1431) 
O=C(NCC1CCC(F)(F)C1)c1ocnc1C(F)(F)F

>  <HIPPO Compound ID>  (1431) 
453017

>  <alias>  (1431) 
DLIDXBQMPXCXLC-UHFFFAOYSA-N-P45

>  <subsites>  (1431) 


>  <placement_batch>  (1431) 
CpKRS_FrAncestor_bulkdock_iter2

>  <name>  (1431) 
DLIDXBQMPXCXLC-UHFFFAOYSA-N-P45

$$$$
BCEKCHGYFQQOQI-UHFFFAOYSA-N-P55
     RDKit          3D

 18 19  0  0  0  0  0  0  0  0999 V2000
    5.7545  -14.0705   24.9253 O   0  0  0  0  0  0  0  0  0  0  0  0
    4.6329  -13.7589   24.8948 C   0  0  0  0  0  0  0  0  0  0  0  0
    3.8608  -12.9212   23.8669 N   0  0  0  0  0  0  0  0  0  0  0  0
    4.2796  -12.3689   22.6122 C   0  0  0  0  0  0  0  0  0  0  0  0
    4.7112  -10.9415   22.7526 C   0  0  0  0  0  0  0  0  0  0  0  0
    4.9701  -10.1989   23.8840 C   0  0  0  0  0  0  0  0  0  0  0  0
    5.4328   -8.8678   23.6211 C   0  0  0  0  0  0  0  0  0  0  0  0
    5.8561   -7.8787   24.6534 C   0  0  0  0  0  0  0  0  0  0  0  0
    5.2301   -8.0739   25.8402 F   0  0  0  0  0  0  0  0  0  0  0  0
    7.1885   -7.9413   24.8794 F   0  0  0  0  0  0  0  0  0  0  0  0
    5.5842   -6.6075   24.2611 F   0  0  0  0  0  0  0  0  0  0  0  0
    5.4571   -8.6384   22.2603 C   0  0  0  0  0  0  0  0  0  0  0  0
    5.0247  -10.0113   21.3569 S   0  0  0  0  0  0  0  0  0  0  0  0
    3.6841  -14.2467   25.9236 C   0  0  0  0  0  0  0  0  0  0  0  0
    3.9507  -15.2390   26.9045 C   0  0  0  0  0  0  0  0  0  0  0  0
    2.7743  -15.4002   27.5902 C   0  0  0  0  0  0  0  0  0  0  0  0
    1.8890  -14.5370   27.0185 N   0  0  0  0  0  0  0  0  0  0  0  0
    2.4113  -13.7973   26.0206 N   0  0  0  0  0  0  0  0  0  0  0  0
  1  2  2  0
  2  3  1  0
  3  4  1  0
  4  5  1  0
  5  6  2  0
  6  7  1  0
  7  8  1  0
  8  9  1  0
  8 10  1  0
  8 11  1  0
  7 12  2  0
 12 13  1  0
  2 14  1  0
 14 15  1  0
 15 16  2  0
 16 17  1  0
 17 18  1  0
 13  5  1  0
 18 14  2  0
M  END
>  <inchikey>  (1432) 
BCEKCHGYFQQOQI-UHFFFAOYSA-N

>  <tags>  (1432) 
fragmenstein_placed,CpKRS_FrAncestor_bulkdock_iter2

>  <ref_pdb>  (1432) 
x0654b

>  <energy_score>  (1432) 
-13.320849

>  <distance_score>  (1432) 
0.342115

>  <HIPPO Pose ID>  (1432) 
60643

>  <ref_mols>  (1432) 
x0646a

>  <smiles>  (1432) 
O=C(NCc1cc(C(F)(F)F)cs1)c1cc[nH]n1

>  <HIPPO Compound ID>  (1432) 
352713

>  <alias>  (1432) 
BCEKCHGYFQQOQI-UHFFFAOYSA-N-P55

>  <subsites>  (1432) 


>  <placement_batch>  (1432) 
CpKRS_FrAncestor_bulkdock_iter2

>  <name>  (1432) 
BCEKCHGYFQQOQI-UHFFFAOYSA-N-P55

$$$$
UYQHLGOYCKWXJL-UHFFFAOYSA-N-P15
     RDKit          3D

 16 17  0  0  0  0  0  0  0  0999 V2000
    1.8706  -26.4746   12.6377 O   0  0  0  0  0  0  0  0  0  0  0  0
    1.7432  -25.4874   13.2436 C   0  0  0  0  0  0  0  0  0  0  0  0
    1.6324  -25.2556   14.7604 N   0  0  0  0  0  0  0  0  0  0  0  0
    1.7493  -26.1761   15.8553 C   0  0  0  0  0  0  0  0  0  0  0  0
    2.5520  -25.6269   16.9931 C   0  0  0  0  0  0  0  0  0  0  0  0
    2.4869  -26.0204   18.3194 C   0  0  0  0  0  0  0  0  0  0  0  0
    3.4300  -25.3399   19.1362 C   0  0  0  0  0  0  0  0  0  0  0  0
    3.6123  -25.6424   20.8001 Cl  0  0  0  0  0  0  0  0  0  0  0  0
    4.1644  -24.4218   18.4282 C   0  0  0  0  0  0  0  0  0  0  0  0
    3.7769  -24.4532   16.7721 S   0  0  0  0  0  0  0  0  0  0  0  0
    1.5563  -24.2324   12.4648 C   0  0  0  0  0  0  0  0  0  0  0  0
    0.6294  -23.2487   12.8103 C   0  0  0  0  0  0  0  0  0  0  0  0
    0.4694  -22.1421   11.9791 C   0  0  0  0  0  0  0  0  0  0  0  0
    1.2408  -22.0544   10.8326 C   0  0  0  0  0  0  0  0  0  0  0  0
    2.1483  -22.9885   10.4615 N   0  0  0  0  0  0  0  0  0  0  0  0
    2.2650  -24.0682   11.2790 C   0  0  0  0  0  0  0  0  0  0  0  0
  1  2  2  0
  2  3  1  0
  3  4  1  0
  4  5  1  0
  5  6  2  0
  6  7  1  0
  7  8  1  0
  7  9  2  0
  9 10  1  0
  2 11  1  0
 11 12  2  0
 12 13  1  0
 13 14  2  0
 14 15  1  0
 15 16  2  0
 10  5  1  0
 16 11  1  0
M  END
>  <inchikey>  (1433) 
UYQHLGOYCKWXJL-UHFFFAOYSA-N

>  <tags>  (1433) 
fragmenstein_placed,CpKRS_FrAncestor_bulkdock_iter2

>  <ref_pdb>  (1433) 
x0654b

>  <energy_score>  (1433) 
-14.299287

>  <distance_score>  (1433) 
0.432313

>  <HIPPO Pose ID>  (1433) 
60645

>  <ref_mols>  (1433) 
x0426b

>  <smiles>  (1433) 
O=C(NCc1cc(Cl)cs1)c1cccnc1

>  <HIPPO Compound ID>  (1433) 
453018

>  <alias>  (1433) 
UYQHLGOYCKWXJL-UHFFFAOYSA-N-P15

>  <subsites>  (1433) 


>  <placement_batch>  (1433) 
CpKRS_FrAncestor_bulkdock_iter2

>  <name>  (1433) 
UYQHLGOYCKWXJL-UHFFFAOYSA-N-P15

$$$$
HTMAKBNNHPRFCP-UHFFFAOYSA-N-P55
     RDKit          3D

 16 17  0  0  0  0  0  0  0  0999 V2000
    5.7931  -14.0312   24.8337 O   0  0  0  0  0  0  0  0  0  0  0  0
    4.6603  -13.7701   24.7807 C   0  0  0  0  0  0  0  0  0  0  0  0
    3.8768  -12.9523   23.7493 N   0  0  0  0  0  0  0  0  0  0  0  0
    4.2991  -12.3609   22.5153 C   0  0  0  0  0  0  0  0  0  0  0  0
    4.6881  -10.9297   22.7134 C   0  0  0  0  0  0  0  0  0  0  0  0
    4.8207  -10.2052   23.8791 C   0  0  0  0  0  0  0  0  0  0  0  0
    5.2635   -8.8760   23.6665 C   0  0  0  0  0  0  0  0  0  0  0  0
    5.5432   -7.7765   24.9348 Cl  0  0  0  0  0  0  0  0  0  0  0  0
    5.4229   -8.5989   22.3327 C   0  0  0  0  0  0  0  0  0  0  0  0
    5.0925   -9.9606   21.3639 S   0  0  0  0  0  0  0  0  0  0  0  0
    3.7352  -14.2304   25.8376 C   0  0  0  0  0  0  0  0  0  0  0  0
    4.0639  -15.1390   26.8806 C   0  0  0  0  0  0  0  0  0  0  0  0
    2.9305  -15.2071   27.6289 C   0  0  0  0  0  0  0  0  0  0  0  0
    2.5731  -15.9561   29.0968 Cl  0  0  0  0  0  0  0  0  0  0  0  0
    1.9859  -14.4520   27.0197 N   0  0  0  0  0  0  0  0  0  0  0  0
    2.4545  -13.7923   25.9368 N   0  0  0  0  0  0  0  0  0  0  0  0
  1  2  2  0
  2  3  1  0
  3  4  1  0
  4  5  1  0
  5  6  2  0
  6  7  1  0
  7  8  1  0
  7  9  2  0
  9 10  1  0
  2 11  1  0
 11 12  1  0
 12 13  2  0
 13 14  1  0
 13 15  1  0
 15 16  1  0
 10  5  1  0
 16 11  2  0
M  END
>  <inchikey>  (1434) 
HTMAKBNNHPRFCP-UHFFFAOYSA-N

>  <tags>  (1434) 
fragmenstein_placed,CpKRS_FrAncestor_bulkdock_iter2

>  <ref_pdb>  (1434) 
x0654b

>  <energy_score>  (1434) 
-8.047881

>  <distance_score>  (1434) 
0.363531

>  <HIPPO Pose ID>  (1434) 
60646

>  <ref_mols>  (1434) 
x0646a

>  <smiles>  (1434) 
O=C(NCc1cc(Cl)cs1)c1cc(Cl)[nH]n1

>  <HIPPO Compound ID>  (1434) 
453019

>  <alias>  (1434) 
HTMAKBNNHPRFCP-UHFFFAOYSA-N-P55

>  <subsites>  (1434) 


>  <placement_batch>  (1434) 
CpKRS_FrAncestor_bulkdock_iter2

>  <name>  (1434) 
HTMAKBNNHPRFCP-UHFFFAOYSA-N-P55

$$$$
PSRMUJFCUSMTFO-UHFFFAOYSA-N-P55
     RDKit          3D

 15 16  0  0  0  0  0  0  0  0999 V2000
    5.8144  -13.9196   25.0466 O   0  0  0  0  0  0  0  0  0  0  0  0
    4.6727  -13.7599   24.8872 C   0  0  0  0  0  0  0  0  0  0  0  0
    3.9159  -13.0456   23.7582 N   0  0  0  0  0  0  0  0  0  0  0  0
    4.3960  -12.4592   22.5386 C   0  0  0  0  0  0  0  0  0  0  0  0
    4.7319  -11.0123   22.7273 C   0  0  0  0  0  0  0  0  0  0  0  0
    4.8546  -10.2788   23.8882 C   0  0  0  0  0  0  0  0  0  0  0  0
    5.2570   -8.9375   23.6670 C   0  0  0  0  0  0  0  0  0  0  0  0
    5.5192   -7.8247   24.9281 Cl  0  0  0  0  0  0  0  0  0  0  0  0
    5.3994   -8.6613   22.3310 C   0  0  0  0  0  0  0  0  0  0  0  0
    5.0888  -10.0335   21.3705 S   0  0  0  0  0  0  0  0  0  0  0  0
    3.7308  -14.3006   25.8897 C   0  0  0  0  0  0  0  0  0  0  0  0
    4.0475  -15.3074   26.8559 C   0  0  0  0  0  0  0  0  0  0  0  0
    2.9259  -15.5536   27.6126 C   0  0  0  0  0  0  0  0  0  0  0  0
    1.9336  -14.7262   27.1649 N   0  0  0  0  0  0  0  0  0  0  0  0
    2.4080  -13.9561   26.1302 C   0  0  0  0  0  0  0  0  0  0  0  0
  1  2  2  0
  2  3  1  0
  3  4  1  0
  4  5  1  0
  5  6  2  0
  6  7  1  0
  7  8  1  0
  7  9  2  0
  9 10  1  0
  2 11  1  0
 11 12  1  0
 12 13  2  0
 13 14  1  0
 14 15  1  0
 10  5  1  0
 15 11  2  0
M  END
>  <inchikey>  (1435) 
PSRMUJFCUSMTFO-UHFFFAOYSA-N

>  <tags>  (1435) 
fragmenstein_placed,CpKRS_FrAncestor_bulkdock_iter2

>  <ref_pdb>  (1435) 
x0654b

>  <energy_score>  (1435) 
-6.002814

>  <distance_score>  (1435) 
0.332588

>  <HIPPO Pose ID>  (1435) 
60647

>  <ref_mols>  (1435) 
x0646a

>  <smiles>  (1435) 
O=C(NCc1cc(Cl)cs1)c1cc[nH]c1

>  <HIPPO Compound ID>  (1435) 
453020

>  <alias>  (1435) 
PSRMUJFCUSMTFO-UHFFFAOYSA-N-P55

>  <subsites>  (1435) 


>  <placement_batch>  (1435) 
CpKRS_FrAncestor_bulkdock_iter2

>  <name>  (1435) 
PSRMUJFCUSMTFO-UHFFFAOYSA-N-P55

$$$$
IZNPKOUTOPJRKN-UHFFFAOYSA-N-P55
     RDKit          3D

 15 16  0  0  0  0  0  0  0  0999 V2000
    5.7613  -14.0568   24.9403 O   0  0  0  0  0  0  0  0  0  0  0  0
    4.6297  -13.7894   24.8762 C   0  0  0  0  0  0  0  0  0  0  0  0
    3.8565  -12.9808   23.8262 N   0  0  0  0  0  0  0  0  0  0  0  0
    4.2908  -12.4098   22.5850 C   0  0  0  0  0  0  0  0  0  0  0  0
    4.6796  -10.9747   22.7512 C   0  0  0  0  0  0  0  0  0  0  0  0
    4.8095  -10.2245   23.9000 C   0  0  0  0  0  0  0  0  0  0  0  0
    5.2603   -8.9026   23.6616 C   0  0  0  0  0  0  0  0  0  0  0  0
    5.5446   -7.7795   24.9085 Cl  0  0  0  0  0  0  0  0  0  0  0  0
    5.4246   -8.6543   22.3227 C   0  0  0  0  0  0  0  0  0  0  0  0
    5.0878  -10.0344   21.3820 S   0  0  0  0  0  0  0  0  0  0  0  0
    3.6801  -14.2642   25.9097 C   0  0  0  0  0  0  0  0  0  0  0  0
    3.9437  -15.2471   26.9007 C   0  0  0  0  0  0  0  0  0  0  0  0
    2.7673  -15.3959   27.5893 C   0  0  0  0  0  0  0  0  0  0  0  0
    1.8852  -14.5346   27.0096 N   0  0  0  0  0  0  0  0  0  0  0  0
    2.4120  -13.8021   26.0090 N   0  0  0  0  0  0  0  0  0  0  0  0
  1  2  2  0
  2  3  1  0
  3  4  1  0
  4  5  1  0
  5  6  2  0
  6  7  1  0
  7  8  1  0
  7  9  2  0
  9 10  1  0
  2 11  1  0
 11 12  1  0
 12 13  2  0
 13 14  1  0
 14 15  1  0
 10  5  1  0
 15 11  2  0
M  END
>  <inchikey>  (1436) 
IZNPKOUTOPJRKN-UHFFFAOYSA-N

>  <tags>  (1436) 
fragmenstein_placed,CpKRS_FrAncestor_bulkdock_iter2

>  <ref_pdb>  (1436) 
x0654b

>  <energy_score>  (1436) 
-25.610632

>  <distance_score>  (1436) 
0.338759

>  <HIPPO Pose ID>  (1436) 
60648

>  <ref_mols>  (1436) 
x0646a

>  <smiles>  (1436) 
O=C(NCc1cc(Cl)cs1)c1cc[nH]n1

>  <HIPPO Compound ID>  (1436) 
453021

>  <alias>  (1436) 
IZNPKOUTOPJRKN-UHFFFAOYSA-N-P55

>  <subsites>  (1436) 


>  <placement_batch>  (1436) 
CpKRS_FrAncestor_bulkdock_iter2

>  <name>  (1436) 
IZNPKOUTOPJRKN-UHFFFAOYSA-N-P55

$$$$
LBLSHKVDNYKAFR-UHFFFAOYSA-N-P55
     RDKit          3D

 16 17  0  0  0  0  0  0  0  0999 V2000
    5.7850  -14.0364   24.9470 O   0  0  0  0  0  0  0  0  0  0  0  0
    4.6534  -13.7692   24.8835 C   0  0  0  0  0  0  0  0  0  0  0  0
    3.8778  -12.9667   23.8288 N   0  0  0  0  0  0  0  0  0  0  0  0
    4.3102  -12.4039   22.5822 C   0  0  0  0  0  0  0  0  0  0  0  0
    4.6929  -10.9667   22.7452 C   0  0  0  0  0  0  0  0  0  0  0  0
    4.8226  -10.2152   23.8934 C   0  0  0  0  0  0  0  0  0  0  0  0
    5.2677   -8.8919   23.6535 C   0  0  0  0  0  0  0  0  0  0  0  0
    5.5525   -7.7688   24.9002 Cl  0  0  0  0  0  0  0  0  0  0  0  0
    5.4259   -8.6430   22.3140 C   0  0  0  0  0  0  0  0  0  0  0  0
    5.0913  -10.0249   21.3748 S   0  0  0  0  0  0  0  0  0  0  0  0
    3.7000  -14.2618   25.8971 C   0  0  0  0  0  0  0  0  0  0  0  0
    2.4200  -13.8193   25.9841 N   0  0  0  0  0  0  0  0  0  0  0  0
    1.8941  -14.5642   26.9822 N   0  0  0  0  0  0  0  0  0  0  0  0
    2.7791  -15.4201   27.5661 C   0  0  0  0  0  0  0  0  0  0  0  0
    3.9448  -15.2403   26.8788 C   0  0  0  0  0  0  0  0  0  0  0  0
    5.0866  -15.8955   27.1002 F   0  0  0  0  0  0  0  0  0  0  0  0
  1  2  2  0
  2  3  1  0
  3  4  1  0
  4  5  1  0
  5  6  2  0
  6  7  1  0
  7  8  1  0
  7  9  2  0
  9 10  1  0
  2 11  1  0
 11 12  2  0
 12 13  1  0
 13 14  1  0
 14 15  2  0
 15 16  1  0
 10  5  1  0
 15 11  1  0
M  END
>  <inchikey>  (1437) 
LBLSHKVDNYKAFR-UHFFFAOYSA-N

>  <tags>  (1437) 
fragmenstein_placed,CpKRS_FrAncestor_bulkdock_iter2

>  <ref_pdb>  (1437) 
x0654b

>  <energy_score>  (1437) 
-10.176046

>  <distance_score>  (1437) 
0.344894

>  <HIPPO Pose ID>  (1437) 
60649

>  <ref_mols>  (1437) 
x0646a

>  <smiles>  (1437) 
O=C(NCc1cc(Cl)cs1)c1n[nH]cc1F

>  <HIPPO Compound ID>  (1437) 
453022

>  <alias>  (1437) 
LBLSHKVDNYKAFR-UHFFFAOYSA-N-P55

>  <subsites>  (1437) 


>  <placement_batch>  (1437) 
CpKRS_FrAncestor_bulkdock_iter2

>  <name>  (1437) 
LBLSHKVDNYKAFR-UHFFFAOYSA-N-P55

$$$$
YNLHHWNGULVZGN-UHFFFAOYSA-N-P16
     RDKit          3D

 17 18  0  0  0  0  0  0  0  0999 V2000
    5.8337  -14.0353   25.1028 O   0  0  0  0  0  0  0  0  0  0  0  0
    4.7074  -13.8032   24.9205 C   0  0  0  0  0  0  0  0  0  0  0  0
    4.0111  -13.1220   23.7337 N   0  0  0  0  0  0  0  0  0  0  0  0
    4.5391  -12.6667   22.4780 C   0  0  0  0  0  0  0  0  0  0  0  0
    4.8307  -11.2215   22.5441 C   0  0  0  0  0  0  0  0  0  0  0  0
    5.2123  -10.3601   23.5425 C   0  0  0  0  0  0  0  0  0  0  0  0
    5.3260   -9.1219   22.9026 C   0  0  0  0  0  0  0  0  0  0  0  0
    5.7291   -7.6588   23.6425 Cl  0  0  0  0  0  0  0  0  0  0  0  0
    5.0292   -9.1906   21.6048 N   0  0  0  0  0  0  0  0  0  0  0  0
    4.7453  -10.5301   21.3725 O   0  0  0  0  0  0  0  0  0  0  0  0
    3.7379  -14.2422   25.9797 C   0  0  0  0  0  0  0  0  0  0  0  0
    4.1323  -15.2736   26.8480 C   0  0  0  0  0  0  0  0  0  0  0  0
    3.3071  -15.6755   27.9024 C   0  0  0  0  0  0  0  0  0  0  0  0
    2.0823  -15.0452   28.1090 C   0  0  0  0  0  0  0  0  0  0  0  0
    1.6691  -14.0361   27.2418 C   0  0  0  0  0  0  0  0  0  0  0  0
    2.4952  -13.6404   26.1879 C   0  0  0  0  0  0  0  0  0  0  0  0
    2.0604  -12.6442   25.3994 F   0  0  0  0  0  0  0  0  0  0  0  0
  1  2  2  0
  2  3  1  0
  3  4  1  0
  4  5  1  0
  5  6  2  0
  6  7  1  0
  7  8  1  0
  7  9  2  0
  9 10  1  0
  2 11  1  0
 11 12  2  0
 12 13  1  0
 13 14  2  0
 14 15  1  0
 15 16  2  0
 16 17  1  0
 10  5  1  0
 16 11  1  0
M  END
>  <inchikey>  (1438) 
YNLHHWNGULVZGN-UHFFFAOYSA-N

>  <tags>  (1438) 
fragmenstein_placed,CpKRS_FrAncestor_bulkdock_iter2

>  <ref_pdb>  (1438) 
x0654b

>  <energy_score>  (1438) 
-1.643787

>  <distance_score>  (1438) 
0.280552

>  <HIPPO Pose ID>  (1438) 
60652

>  <ref_mols>  (1438) 
x0426a

>  <smiles>  (1438) 
O=C(NCc1cc(Cl)no1)c1ccccc1F

>  <HIPPO Compound ID>  (1438) 
453024

>  <alias>  (1438) 
YNLHHWNGULVZGN-UHFFFAOYSA-N-P16

>  <subsites>  (1438) 


>  <placement_batch>  (1438) 
CpKRS_FrAncestor_bulkdock_iter2

>  <name>  (1438) 
YNLHHWNGULVZGN-UHFFFAOYSA-N-P16

$$$$
RNIJTIAWOCFTHS-UHFFFAOYSA-N-P16
     RDKit          3D

 16 17  0  0  0  0  0  0  0  0999 V2000
    5.8534  -13.7473   25.1708 O   0  0  0  0  0  0  0  0  0  0  0  0
    4.7255  -13.6981   24.8892 C   0  0  0  0  0  0  0  0  0  0  0  0
    4.0432  -13.2510   23.5889 N   0  0  0  0  0  0  0  0  0  0  0  0
    4.5968  -12.6809   22.3932 C   0  0  0  0  0  0  0  0  0  0  0  0
    4.8370  -11.2324   22.5366 C   0  0  0  0  0  0  0  0  0  0  0  0
    5.2420  -10.4093   23.5576 C   0  0  0  0  0  0  0  0  0  0  0  0
    5.3088   -9.1402   22.9703 C   0  0  0  0  0  0  0  0  0  0  0  0
    5.7320   -7.7017   23.7465 Cl  0  0  0  0  0  0  0  0  0  0  0  0
    4.9522   -9.1557   21.6862 N   0  0  0  0  0  0  0  0  0  0  0  0
    4.6882  -10.4879   21.4041 O   0  0  0  0  0  0  0  0  0  0  0  0
    3.7270  -14.1585   25.9101 C   0  0  0  0  0  0  0  0  0  0  0  0
    4.0781  -15.2353   26.7356 C   0  0  0  0  0  0  0  0  0  0  0  0
    3.2246  -15.6452   27.7610 C   0  0  0  0  0  0  0  0  0  0  0  0
    2.0225  -14.9734   27.9758 C   0  0  0  0  0  0  0  0  0  0  0  0
    1.6568  -13.9111   27.1495 C   0  0  0  0  0  0  0  0  0  0  0  0
    2.5079  -13.4987   26.1197 C   0  0  0  0  0  0  0  0  0  0  0  0
  1  2  2  0
  2  3  1  0
  3  4  1  0
  4  5  1  0
  5  6  2  0
  6  7  1  0
  7  8  1  0
  7  9  2  0
  9 10  1  0
  2 11  1  0
 11 12  2  0
 12 13  1  0
 13 14  2  0
 14 15  1  0
 15 16  2  0
 10  5  1  0
 16 11  1  0
M  END
>  <inchikey>  (1439) 
RNIJTIAWOCFTHS-UHFFFAOYSA-N

>  <tags>  (1439) 
fragmenstein_placed,CpKRS_FrAncestor_bulkdock_iter2

>  <ref_pdb>  (1439) 
x0654b

>  <energy_score>  (1439) 
-8.27617

>  <distance_score>  (1439) 
0.339259

>  <HIPPO Pose ID>  (1439) 
60654

>  <ref_mols>  (1439) 
x0426a

>  <smiles>  (1439) 
O=C(NCc1cc(Cl)no1)c1ccccc1

>  <HIPPO Compound ID>  (1439) 
453025

>  <alias>  (1439) 
RNIJTIAWOCFTHS-UHFFFAOYSA-N-P16

>  <subsites>  (1439) 


>  <placement_batch>  (1439) 
CpKRS_FrAncestor_bulkdock_iter2

>  <name>  (1439) 
RNIJTIAWOCFTHS-UHFFFAOYSA-N-P16

$$$$
YXLWMMZQKYJVPV-UHFFFAOYSA-N-P34
     RDKit          3D

 16 17  0  0  0  0  0  0  0  0999 V2000
    5.8616  -13.6346   24.9733 O   0  0  0  0  0  0  0  0  0  0  0  0
    4.7469  -13.4009   24.7347 C   0  0  0  0  0  0  0  0  0  0  0  0
    4.1183  -12.6491   23.5516 N   0  0  0  0  0  0  0  0  0  0  0  0
    4.7322  -11.9450   22.4623 C   0  0  0  0  0  0  0  0  0  0  0  0
    4.9735  -10.5280   22.8231 C   0  0  0  0  0  0  0  0  0  0  0  0
    5.7739   -9.9068   23.7571 C   0  0  0  0  0  0  0  0  0  0  0  0
    5.6517   -8.5164   23.5586 C   0  0  0  0  0  0  0  0  0  0  0  0
    4.7837   -8.3729   22.5057 C   0  0  0  0  0  0  0  0  0  0  0  0
    4.3540   -9.5809   22.0609 O   0  0  0  0  0  0  0  0  0  0  0  0
    3.7460  -13.8790   25.7286 C   0  0  0  0  0  0  0  0  0  0  0  0
    2.5258  -13.2441   25.9680 C   0  0  0  0  0  0  0  0  0  0  0  0
    1.7485  -13.6696   27.0402 C   0  0  0  0  0  0  0  0  0  0  0  0
    2.2343  -14.6982   27.8351 C   0  0  0  0  0  0  0  0  0  0  0  0
    1.4218  -15.1368   29.2699 Cl  0  0  0  0  0  0  0  0  0  0  0  0
    3.3846  -15.3574   27.6332 N   0  0  0  0  0  0  0  0  0  0  0  0
    4.1145  -14.9292   26.5742 C   0  0  0  0  0  0  0  0  0  0  0  0
  1  2  2  0
  2  3  1  0
  3  4  1  0
  4  5  1  0
  5  6  2  0
  6  7  1  0
  7  8  2  0
  8  9  1  0
  2 10  1  0
 10 11  2  0
 11 12  1  0
 12 13  2  0
 13 14  1  0
 13 15  1  0
 15 16  2  0
  9  5  1  0
 16 10  1  0
M  END
>  <inchikey>  (1440) 
YXLWMMZQKYJVPV-UHFFFAOYSA-N

>  <tags>  (1440) 
fragmenstein_placed,CpKRS_FrAncestor_bulkdock_iter2

>  <ref_pdb>  (1440) 
x0654b

>  <energy_score>  (1440) 
-1.076712

>  <distance_score>  (1440) 
0.403263

>  <HIPPO Pose ID>  (1440) 
60660

>  <ref_mols>  (1440) 
x0492a

>  <smiles>  (1440) 
O=C(NCc1ccco1)c1ccc(Cl)nc1

>  <HIPPO Compound ID>  (1440) 
213993

>  <alias>  (1440) 
YXLWMMZQKYJVPV-UHFFFAOYSA-N-P34

>  <subsites>  (1440) 


>  <placement_batch>  (1440) 
CpKRS_FrAncestor_bulkdock_iter2

>  <name>  (1440) 
YXLWMMZQKYJVPV-UHFFFAOYSA-N-P34

$$$$
KTPUZJRVKGBLOF-UHFFFAOYSA-N-P34
     RDKit          3D

 16 17  0  0  0  0  0  0  0  0999 V2000
    5.1418  -13.9087   24.2526 O   0  0  0  0  0  0  0  0  0  0  0  0
    4.2082  -13.2174   24.3246 C   0  0  0  0  0  0  0  0  0  0  0  0
    3.8057  -11.9913   23.4804 N   0  0  0  0  0  0  0  0  0  0  0  0
    4.4150  -11.4236   22.3233 C   0  0  0  0  0  0  0  0  0  0  0  0
    4.9652  -10.1069   22.6812 C   0  0  0  0  0  0  0  0  0  0  0  0
    5.7375   -9.6521   23.7271 C   0  0  0  0  0  0  0  0  0  0  0  0
    5.9500   -8.2773   23.5100 C   0  0  0  0  0  0  0  0  0  0  0  0
    5.3233   -7.9940   22.3217 C   0  0  0  0  0  0  0  0  0  0  0  0
    4.7025   -9.0876   21.8216 O   0  0  0  0  0  0  0  0  0  0  0  0
    3.1554  -13.3625   25.4587 C   0  0  1  0  0  0  0  0  0  0  0  0
    3.1928  -12.1879   26.1517 F   0  0  0  0  0  0  0  0  0  0  0  0
    1.6717  -13.4055   25.1425 C   0  0  0  0  0  0  0  0  0  0  0  0
    0.8830  -13.3729   26.4598 C   0  0  0  0  0  0  0  0  0  0  0  0
    1.5863  -14.0593   27.6381 C   0  0  0  0  0  0  0  0  0  0  0  0
    2.4929  -15.1174   27.2384 N   0  0  0  0  0  0  0  0  0  0  0  0
    3.5664  -14.5449   26.3870 C   0  0  0  0  0  0  0  0  0  0  0  0
  1  2  2  0
  2  3  1  0
  3  4  1  0
  4  5  1  0
  5  6  2  0
  6  7  1  0
  7  8  2  0
  8  9  1  0
  2 10  1  0
 10 11  1  1
 10 12  1  0
 12 13  1  0
 13 14  1  0
 14 15  1  0
 15 16  1  0
  9  5  1  0
 16 10  1  0
M  END
>  <inchikey>  (1441) 
KTPUZJRVKGBLOF-UHFFFAOYSA-N

>  <tags>  (1441) 
fragmenstein_placed,CpKRS_FrAncestor_bulkdock_iter2

>  <ref_pdb>  (1441) 
x0654b

>  <energy_score>  (1441) 
-13.868908

>  <distance_score>  (1441) 
0.676975

>  <HIPPO Pose ID>  (1441) 
60664

>  <ref_mols>  (1441) 
x0492a

>  <smiles>  (1441) 
O=C(NCc1ccco1)C1(F)CCCNC1

>  <HIPPO Compound ID>  (1441) 
453028

>  <alias>  (1441) 
KTPUZJRVKGBLOF-UHFFFAOYSA-N-P34

>  <subsites>  (1441) 


>  <placement_batch>  (1441) 
CpKRS_FrAncestor_bulkdock_iter2

>  <name>  (1441) 
KTPUZJRVKGBLOF-UHFFFAOYSA-N-P34

$$$$
WIOJYQOOTZRWDO-UHFFFAOYSA-N-P35
     RDKit          3D

 16 17  0  0  0  0  0  0  0  0999 V2000
    5.7507  -13.6334   24.8076 O   0  0  0  0  0  0  0  0  0  0  0  0
    4.6235  -13.3476   24.8058 C   0  0  0  0  0  0  0  0  0  0  0  0
    3.8203  -12.4726   23.8330 N   0  0  0  0  0  0  0  0  0  0  0  0
    4.2115  -11.8438   22.6090 C   0  0  0  0  0  0  0  0  0  0  0  0
    4.7643  -10.4996   22.8736 C   0  0  0  0  0  0  0  0  0  0  0  0
    5.7387  -10.0374   23.7288 C   0  0  0  0  0  0  0  0  0  0  0  0
    5.8856   -8.6590   23.4894 C   0  0  0  0  0  0  0  0  0  0  0  0
    5.0142   -8.3720   22.4688 C   0  0  0  0  0  0  0  0  0  0  0  0
    4.3097   -9.4720   22.1016 O   0  0  0  0  0  0  0  0  0  0  0  0
    3.7185  -13.8492   25.8913 C   0  0  0  0  0  0  0  0  0  0  0  0
    2.4911  -13.2354   25.9728 N   0  0  0  0  0  0  0  0  0  0  0  0
    1.7249  -13.6000   27.0207 C   0  0  0  0  0  0  0  0  0  0  0  0
    2.0992  -14.5394   27.9727 C   0  0  0  0  0  0  0  0  0  0  0  0
    3.3336  -15.1661   27.8352 C   0  0  0  0  0  0  0  0  0  0  0  0
    4.1609  -14.8204   26.7786 C   0  0  0  0  0  0  0  0  0  0  0  0
    5.3676  -15.3998   26.6951 F   0  0  0  0  0  0  0  0  0  0  0  0
  1  2  2  0
  2  3  1  0
  3  4  1  0
  4  5  1  0
  5  6  2  0
  6  7  1  0
  7  8  2  0
  8  9  1  0
  2 10  1  0
 10 11  2  0
 11 12  1  0
 12 13  2  0
 13 14  1  0
 14 15  2  0
 15 16  1  0
  9  5  1  0
 15 10  1  0
M  END
>  <inchikey>  (1442) 
WIOJYQOOTZRWDO-UHFFFAOYSA-N

>  <tags>  (1442) 
fragmenstein_placed,CpKRS_FrAncestor_bulkdock_iter2

>  <ref_pdb>  (1442) 
x0654b

>  <energy_score>  (1442) 
-14.407792

>  <distance_score>  (1442) 
0.321229

>  <HIPPO Pose ID>  (1442) 
60667

>  <ref_mols>  (1442) 
x0492b

>  <smiles>  (1442) 
O=C(NCc1ccco1)c1ncccc1F

>  <HIPPO Compound ID>  (1442) 
453029

>  <alias>  (1442) 
WIOJYQOOTZRWDO-UHFFFAOYSA-N-P35

>  <subsites>  (1442) 


>  <placement_batch>  (1442) 
CpKRS_FrAncestor_bulkdock_iter2

>  <name>  (1442) 
WIOJYQOOTZRWDO-UHFFFAOYSA-N-P35

$$$$
PKNCNFIFODFAMG-UHFFFAOYSA-N-P45
     RDKit          3D

 14 15  0  0  0  0  0  0  0  0999 V2000
    5.4334  -13.8295   25.2789 O   0  0  0  0  0  0  0  0  0  0  0  0
    4.3321  -13.4734   25.1434 C   0  0  0  0  0  0  0  0  0  0  0  0
    3.7034  -12.5613   24.0758 N   0  0  0  0  0  0  0  0  0  0  0  0
    4.3123  -11.8190   23.0052 C   0  0  0  0  0  0  0  0  0  0  0  0
    4.1997  -10.3034   23.1629 C   0  0  2  0  0  0  0  0  0  0  0  0
    4.8762   -9.5600   22.0191 C   0  0  0  0  0  0  0  0  0  0  0  0
    5.1915   -8.2376   22.6634 C   0  0  0  0  0  0  0  0  0  0  0  0
    5.6027   -8.6605   24.0552 C   0  0  0  0  0  0  0  0  0  0  0  0
    4.8415   -9.8348   24.3669 O   0  0  0  0  0  0  0  0  0  0  0  0
    3.3036  -13.9306   26.0673 C   0  0  0  0  0  0  0  0  0  0  0  0
    3.3399  -14.8987   27.0447 C   0  0  0  0  0  0  0  0  0  0  0  0
    2.0666  -14.8545   27.6256 C   0  0  0  0  0  0  0  0  0  0  0  0
    1.2751  -13.9383   27.0577 N   0  0  0  0  0  0  0  0  0  0  0  0
    2.0604  -13.3578   26.0639 O   0  0  0  0  0  0  0  0  0  0  0  0
  1  2  2  0
  2  3  1  0
  3  4  1  0
  5  4  1  6
  5  6  1  0
  6  7  1  0
  7  8  1  0
  8  9  1  0
  2 10  1  0
 10 11  2  0
 11 12  1  0
 12 13  2  0
 13 14  1  0
  9  5  1  0
 14 10  1  0
M  END
>  <inchikey>  (1443) 
PKNCNFIFODFAMG-UHFFFAOYSA-N

>  <tags>  (1443) 
fragmenstein_placed,CpKRS_FrAncestor_bulkdock_iter2

>  <ref_pdb>  (1443) 
x0654b

>  <energy_score>  (1443) 
-12.897635

>  <distance_score>  (1443) 
0.334207

>  <HIPPO Pose ID>  (1443) 
60668

>  <ref_mols>  (1443) 
x0502a

>  <smiles>  (1443) 
O=C(NCC1CCCO1)c1ccno1

>  <HIPPO Compound ID>  (1443) 
199759

>  <alias>  (1443) 
PKNCNFIFODFAMG-UHFFFAOYSA-N-P45

>  <subsites>  (1443) 


>  <placement_batch>  (1443) 
CpKRS_FrAncestor_bulkdock_iter2

>  <name>  (1443) 
PKNCNFIFODFAMG-UHFFFAOYSA-N-P45

$$$$
DQGSGIILZPQTMG-UHFFFAOYSA-N-P45
     RDKit          3D

 14 15  0  0  0  0  0  0  0  0999 V2000
    5.5457  -13.9429   25.2724 O   0  0  0  0  0  0  0  0  0  0  0  0
    4.4582  -13.5326   25.1975 C   0  0  0  0  0  0  0  0  0  0  0  0
    3.8480  -12.4947   24.2399 N   0  0  0  0  0  0  0  0  0  0  0  0
    4.4231  -11.8126   23.1119 C   0  0  0  0  0  0  0  0  0  0  0  0
    4.2372  -10.2960   23.1624 C   0  0  2  0  0  0  0  0  0  0  0  0
    4.8940   -9.5968   21.9800 C   0  0  0  0  0  0  0  0  0  0  0  0
    5.1587   -8.2275   22.5447 C   0  0  0  0  0  0  0  0  0  0  0  0
    5.5805   -8.5542   23.9583 C   0  0  0  0  0  0  0  0  0  0  0  0
    4.8406   -9.7201   24.3414 O   0  0  0  0  0  0  0  0  0  0  0  0
    3.4291  -13.9926   26.1112 C   0  0  0  0  0  0  0  0  0  0  0  0
    3.4171  -14.9979   27.0542 C   0  0  0  0  0  0  0  0  0  0  0  0
    2.2318  -14.9891   27.7494 N   0  0  0  0  0  0  0  0  0  0  0  0
    1.5736  -14.0033   27.1915 C   0  0  0  0  0  0  0  0  0  0  0  0
    2.2048  -13.3630   26.1734 O   0  0  0  0  0  0  0  0  0  0  0  0
  1  2  2  0
  2  3  1  0
  3  4  1  0
  5  4  1  6
  5  6  1  0
  6  7  1  0
  7  8  1  0
  8  9  1  0
  2 10  1  0
 10 11  2  0
 11 12  1  0
 12 13  2  0
 13 14  1  0
  9  5  1  0
 14 10  1  0
M  END
>  <inchikey>  (1444) 
DQGSGIILZPQTMG-UHFFFAOYSA-N

>  <tags>  (1444) 
fragmenstein_placed,CpKRS_FrAncestor_bulkdock_iter2

>  <ref_pdb>  (1444) 
x0654b

>  <energy_score>  (1444) 
-17.924169

>  <distance_score>  (1444) 
0.33437

>  <HIPPO Pose ID>  (1444) 
60671

>  <ref_mols>  (1444) 
x0502a

>  <smiles>  (1444) 
O=C(NCC1CCCO1)c1cnco1

>  <HIPPO Compound ID>  (1444) 
200163

>  <alias>  (1444) 
DQGSGIILZPQTMG-UHFFFAOYSA-N-P45

>  <subsites>  (1444) 


>  <placement_batch>  (1444) 
CpKRS_FrAncestor_bulkdock_iter2

>  <name>  (1444) 
DQGSGIILZPQTMG-UHFFFAOYSA-N-P45

$$$$
JWGYQZSSOREBKC-UHFFFAOYSA-N-P44
     RDKit          3D

 14 15  0  0  0  0  0  0  0  0999 V2000
  -11.7420  -12.1402   45.8477 O   0  0  0  0  0  0  0  0  0  0  0  0
  -11.1393  -12.9989   46.3560 C   0  0  0  0  0  0  0  0  0  0  0  0
  -11.4517  -14.5055   46.4736 N   0  0  0  0  0  0  0  0  0  0  0  0
  -12.5252  -15.2873   45.9079 C   0  0  0  0  0  0  0  0  0  0  0  0
  -12.5060  -15.3441   44.3728 C   0  0  1  0  0  0  0  0  0  0  0  0
  -11.5265  -16.3729   43.8254 C   0  0  0  0  0  0  0  0  0  0  0  0
  -12.3905  -17.5865   43.5959 C   0  0  0  0  0  0  0  0  0  0  0  0
  -13.7052  -16.9712   43.1904 C   0  0  0  0  0  0  0  0  0  0  0  0
  -13.8142  -15.7392   43.9078 O   0  0  0  0  0  0  0  0  0  0  0  0
   -9.9247  -12.6709   47.1086 C   0  0  0  0  0  0  0  0  0  0  0  0
   -9.3492  -13.2514   48.2253 C   0  0  0  0  0  0  0  0  0  0  0  0
   -8.2221  -12.6244   48.7290 N   0  0  0  0  0  0  0  0  0  0  0  0
   -7.9381  -11.5868   47.9761 C   0  0  0  0  0  0  0  0  0  0  0  0
   -8.9974  -11.2852   46.6673 S   0  0  0  0  0  0  0  0  0  0  0  0
  1  2  2  0
  2  3  1  0
  3  4  1  0
  5  4  1  1
  5  6  1  0
  6  7  1  0
  7  8  1  0
  8  9  1  0
  2 10  1  0
 10 11  2  0
 11 12  1  0
 12 13  2  0
 13 14  1  0
  9  5  1  0
 14 10  1  0
M  END
>  <inchikey>  (1445) 
JWGYQZSSOREBKC-UHFFFAOYSA-N

>  <tags>  (1445) 
fragmenstein_placed,CpKRS_FrAncestor_bulkdock_iter2

>  <ref_pdb>  (1445) 
x0654b

>  <energy_score>  (1445) 
-40.812385

>  <distance_score>  (1445) 
0.345767

>  <HIPPO Pose ID>  (1445) 
60675

>  <ref_mols>  (1445) 
x0502b

>  <smiles>  (1445) 
O=C(NCC1CCCO1)c1cncs1

>  <HIPPO Compound ID>  (1445) 
200161

>  <alias>  (1445) 
JWGYQZSSOREBKC-UHFFFAOYSA-N-P44

>  <subsites>  (1445) 


>  <placement_batch>  (1445) 
CpKRS_FrAncestor_bulkdock_iter2

>  <name>  (1445) 
JWGYQZSSOREBKC-UHFFFAOYSA-N-P44

$$$$
FIKLZDCALBCVEZ-UHFFFAOYSA-N-P55
     RDKit          3D

 15 16  0  0  0  0  0  0  0  0999 V2000
    5.6874  -13.9420   24.7530 O   0  0  0  0  0  0  0  0  0  0  0  0
    4.5484  -13.7090   24.7932 C   0  0  0  0  0  0  0  0  0  0  0  0
    3.6711  -12.8817   23.8515 N   0  0  0  0  0  0  0  0  0  0  0  0
    3.9843  -12.2431   22.6111 C   0  0  0  0  0  0  0  0  0  0  0  0
    4.3528  -10.8120   22.8493 C   0  0  0  0  0  0  0  0  0  0  0  0
    4.0517   -9.9902   23.9183 C   0  0  0  0  0  0  0  0  0  0  0  0
    4.6612   -8.7083   23.8190 C   0  0  0  0  0  0  0  0  0  0  0  0
    5.3384   -8.5590   22.6318 C   0  0  0  0  0  0  0  0  0  0  0  0
    5.2661   -9.9669   21.6720 S   0  0  0  0  0  0  0  0  0  0  0  0
    3.7044  -14.2470   25.8789 C   0  0  0  0  0  0  0  0  0  0  0  0
    4.1305  -15.1657   26.8745 C   0  0  0  0  0  0  0  0  0  0  0  0
    3.0423  -15.3089   27.6767 C   0  0  0  0  0  0  0  0  0  0  0  0
    2.8049  -16.1158   29.1366 Cl  0  0  0  0  0  0  0  0  0  0  0  0
    2.0316  -14.5839   27.1414 N   0  0  0  0  0  0  0  0  0  0  0  0
    2.4086  -13.8804   26.0515 N   0  0  0  0  0  0  0  0  0  0  0  0
  1  2  2  0
  2  3  1  0
  3  4  1  0
  4  5  1  0
  5  6  2  0
  6  7  1  0
  7  8  2  0
  8  9  1  0
  2 10  1  0
 10 11  1  0
 11 12  2  0
 12 13  1  0
 12 14  1  0
 14 15  1  0
  9  5  1  0
 15 10  2  0
M  END
>  <inchikey>  (1446) 
FIKLZDCALBCVEZ-UHFFFAOYSA-N

>  <tags>  (1446) 
fragmenstein_placed,CpKRS_FrAncestor_bulkdock_iter2

>  <ref_pdb>  (1446) 
x0654b

>  <energy_score>  (1446) 
-18.153428

>  <distance_score>  (1446) 
0.479532

>  <HIPPO Pose ID>  (1446) 
60677

>  <ref_mols>  (1446) 
x0646a

>  <smiles>  (1446) 
O=C(NCc1cccs1)c1cc(Cl)[nH]n1

>  <HIPPO Compound ID>  (1446) 
453030

>  <alias>  (1446) 
FIKLZDCALBCVEZ-UHFFFAOYSA-N-P55

>  <subsites>  (1446) 


>  <placement_batch>  (1446) 
CpKRS_FrAncestor_bulkdock_iter2

>  <name>  (1446) 
FIKLZDCALBCVEZ-UHFFFAOYSA-N-P55

$$$$
LHVXLCHZMKPROO-UHFFFAOYSA-N-P34
     RDKit          3D

 16 17  0  0  0  0  0  0  0  0999 V2000
    5.8223  -13.7556   24.8957 O   0  0  0  0  0  0  0  0  0  0  0  0
    4.7059  -13.4440   24.8050 C   0  0  0  0  0  0  0  0  0  0  0  0
    3.9986  -12.5706   23.7596 N   0  0  0  0  0  0  0  0  0  0  0  0
    4.4952  -11.9748   22.5547 C   0  0  0  0  0  0  0  0  0  0  0  0
    4.9194  -10.5624   22.7806 C   0  0  0  0  0  0  0  0  0  0  0  0
    5.6793  -10.0321   23.7996 C   0  0  0  0  0  0  0  0  0  0  0  0
    5.9158   -8.6384   23.6733 C   0  0  0  0  0  0  0  0  0  0  0  0
    5.3636   -8.1536   22.5153 C   0  0  0  0  0  0  0  0  0  0  0  0
    4.5764   -9.3641   21.6225 S   0  0  0  0  0  0  0  0  0  0  0  0
    3.7209  -13.9328   25.8256 C   0  0  0  0  0  0  0  0  0  0  0  0
    2.5130  -13.2781   25.8682 N   0  0  0  0  0  0  0  0  0  0  0  0
    1.6944  -13.6418   26.8773 C   0  0  0  0  0  0  0  0  0  0  0  0
    1.9905  -14.6236   27.8162 C   0  0  0  0  0  0  0  0  0  0  0  0
    3.1965  -15.3043   27.7072 C   0  0  0  0  0  0  0  0  0  0  0  0
    4.0820  -14.9511   26.7013 C   0  0  0  0  0  0  0  0  0  0  0  0
    5.2595  -15.5884   26.6382 F   0  0  0  0  0  0  0  0  0  0  0  0
  1  2  2  0
  2  3  1  0
  3  4  1  0
  4  5  1  0
  5  6  2  0
  6  7  1  0
  7  8  2  0
  8  9  1  0
  2 10  1  0
 10 11  2  0
 11 12  1  0
 12 13  2  0
 13 14  1  0
 14 15  2  0
 15 16  1  0
  9  5  1  0
 15 10  1  0
M  END
>  <inchikey>  (1447) 
LHVXLCHZMKPROO-UHFFFAOYSA-N

>  <tags>  (1447) 
fragmenstein_placed,CpKRS_FrAncestor_bulkdock_iter2

>  <ref_pdb>  (1447) 
x0654b

>  <energy_score>  (1447) 
-21.304821

>  <distance_score>  (1447) 
0.338586

>  <HIPPO Pose ID>  (1447) 
60687

>  <ref_mols>  (1447) 
x0492a

>  <smiles>  (1447) 
O=C(NCc1cccs1)c1ncccc1F

>  <HIPPO Compound ID>  (1447) 
453031

>  <alias>  (1447) 
LHVXLCHZMKPROO-UHFFFAOYSA-N-P34

>  <subsites>  (1447) 


>  <placement_batch>  (1447) 
CpKRS_FrAncestor_bulkdock_iter2

>  <name>  (1447) 
LHVXLCHZMKPROO-UHFFFAOYSA-N-P34

$$$$
UEFDDCHSRDHMSP-UHFFFAOYSA-N-P55
     RDKit          3D

 15 16  0  0  0  0  0  0  0  0999 V2000
    3.8126  -12.3361   21.9560 O   0  0  0  0  0  0  0  0  0  0  0  0
    4.1499  -11.8781   22.9725 C   0  0  0  0  0  0  0  0  0  0  0  0
    4.2902  -12.5262   24.3604 N   0  0  0  0  0  0  0  0  0  0  0  0
    4.1383  -13.8822   24.7674 C   0  0  0  0  0  0  0  0  0  0  0  0
    3.3158  -14.1208   25.9748 C   0  0  0  0  0  0  0  0  0  0  0  0
    3.6413  -15.0546   27.0057 C   0  0  0  0  0  0  0  0  0  0  0  0
    2.5709  -15.1295   27.8656 C   0  0  0  0  0  0  0  0  0  0  0  0
    1.6023  -14.2792   27.4027 N   0  0  0  0  0  0  0  0  0  0  0  0
    2.0476  -13.6523   26.2664 C   0  0  0  0  0  0  0  0  0  0  0  0
    4.6278  -10.4957   23.0372 C   0  0  0  0  0  0  0  0  0  0  0  0
    4.8436   -9.8452   24.1640 N   0  0  0  0  0  0  0  0  0  0  0  0
    5.3049   -8.5859   23.8565 C   0  0  0  0  0  0  0  0  0  0  0  0
    5.6834   -7.3366   25.2099 Br  0  0  0  0  0  0  0  0  0  0  0  0
    5.4333   -8.2880   22.5208 C   0  0  0  0  0  0  0  0  0  0  0  0
    5.0185   -9.6529   21.5928 S   0  0  0  0  0  0  0  0  0  0  0  0
  1  2  2  0
  2  3  1  0
  3  4  1  0
  4  5  1  0
  5  6  1  0
  6  7  2  0
  7  8  1  0
  8  9  1  0
  2 10  1  0
 10 11  2  0
 11 12  1  0
 12 13  1  0
 12 14  2  0
 14 15  1  0
  9  5  2  0
 15 10  1  0
M  END
>  <inchikey>  (1448) 
UEFDDCHSRDHMSP-UHFFFAOYSA-N

>  <tags>  (1448) 
fragmenstein_placed,CpKRS_FrAncestor_bulkdock_iter2

>  <ref_pdb>  (1448) 
x0654b

>  <energy_score>  (1448) 
-50.164114

>  <distance_score>  (1448) 
0.768965

>  <HIPPO Pose ID>  (1448) 
60701

>  <ref_mols>  (1448) 
x0646a

>  <smiles>  (1448) 
O=C(NCc1cc[nH]c1)c1nc(Br)cs1

>  <HIPPO Compound ID>  (1448) 
453038

>  <alias>  (1448) 
UEFDDCHSRDHMSP-UHFFFAOYSA-N-P55

>  <subsites>  (1448) 


>  <placement_batch>  (1448) 
CpKRS_FrAncestor_bulkdock_iter2

>  <name>  (1448) 
UEFDDCHSRDHMSP-UHFFFAOYSA-N-P55

$$$$
GRBOSGXKXMGEBY-UHFFFAOYSA-N-P55
     RDKit          3D

 15 16  0  0  0  0  0  0  0  0999 V2000
    5.1347  -13.1971   22.5214 O   0  0  0  0  0  0  0  0  0  0  0  0
    4.7918  -12.5715   23.4380 C   0  0  0  0  0  0  0  0  0  0  0  0
    4.4882  -13.0013   24.8750 N   0  0  0  0  0  0  0  0  0  0  0  0
    4.6312  -14.2685   25.5130 C   0  0  0  0  0  0  0  0  0  0  0  0
    3.5005  -14.5476   26.4317 C   0  0  0  0  0  0  0  0  0  0  0  0
    3.5714  -15.4194   27.5558 C   0  0  0  0  0  0  0  0  0  0  0  0
    2.3487  -15.4011   28.1816 C   0  0  0  0  0  0  0  0  0  0  0  0
    1.5147  -14.5931   27.4564 N   0  0  0  0  0  0  0  0  0  0  0  0
    2.1999  -14.0744   26.3907 C   0  0  0  0  0  0  0  0  0  0  0  0
    4.6860  -11.1169   23.3572 C   0  0  0  0  0  0  0  0  0  0  0  0
    4.3526  -10.3549   24.3871 N   0  0  0  0  0  0  0  0  0  0  0  0
    4.5929   -9.0394   24.0605 C   0  0  0  0  0  0  0  0  0  0  0  0
    5.0199   -8.8509   22.7762 C   0  0  0  0  0  0  0  0  0  0  0  0
    5.3983   -7.3901   22.0283 Cl  0  0  0  0  0  0  0  0  0  0  0  0
    5.1338  -10.2942   21.9207 S   0  0  0  0  0  0  0  0  0  0  0  0
  1  2  2  0
  2  3  1  0
  3  4  1  0
  4  5  1  0
  5  6  1  0
  6  7  2  0
  7  8  1  0
  8  9  1  0
  2 10  1  0
 10 11  2  0
 11 12  1  0
 12 13  2  0
 13 14  1  0
 13 15  1  0
  9  5  2  0
 15 10  1  0
M  END
>  <inchikey>  (1449) 
GRBOSGXKXMGEBY-UHFFFAOYSA-N

>  <tags>  (1449) 
fragmenstein_placed,CpKRS_FrAncestor_bulkdock_iter2

>  <ref_pdb>  (1449) 
x0654b

>  <energy_score>  (1449) 
-49.189005

>  <distance_score>  (1449) 
0.907402

>  <HIPPO Pose ID>  (1449) 
60702

>  <ref_mols>  (1449) 
x0646a

>  <smiles>  (1449) 
O=C(NCc1cc[nH]c1)c1ncc(Cl)s1

>  <HIPPO Compound ID>  (1449) 
453039

>  <alias>  (1449) 
GRBOSGXKXMGEBY-UHFFFAOYSA-N-P55

>  <subsites>  (1449) 


>  <placement_batch>  (1449) 
CpKRS_FrAncestor_bulkdock_iter2

>  <name>  (1449) 
GRBOSGXKXMGEBY-UHFFFAOYSA-N-P55

$$$$
XSRLEECYFQZCCX-UHFFFAOYSA-N-P55
     RDKit          3D

 16 17  0  0  0  0  0  0  0  0999 V2000
    4.1198  -13.2458   22.5150 O   0  0  0  0  0  0  0  0  0  0  0  0
    4.3963  -12.6144   23.4492 C   0  0  0  0  0  0  0  0  0  0  0  0
    4.6221  -13.0386   24.9017 N   0  0  0  0  0  0  0  0  0  0  0  0
    4.6488  -14.3339   25.4947 C   0  0  0  0  0  0  0  0  0  0  0  0
    3.5074  -14.5475   26.4165 C   0  0  0  0  0  0  0  0  0  0  0  0
    3.5407  -15.4025   27.5560 C   0  0  0  0  0  0  0  0  0  0  0  0
    2.3112  -15.3419   28.1657 C   0  0  0  0  0  0  0  0  0  0  0  0
    1.5095  -14.5223   27.4170 N   0  0  0  0  0  0  0  0  0  0  0  0
    2.2236  -14.0344   26.3555 C   0  0  0  0  0  0  0  0  0  0  0  0
    4.6824  -11.1841   23.3516 C   0  0  0  0  0  0  0  0  0  0  0  0
    4.8602  -10.4182   24.4136 N   0  0  0  0  0  0  0  0  0  0  0  0
    5.1758   -9.1411   24.0081 C   0  0  0  0  0  0  0  0  0  0  0  0
    5.4477   -7.9085   25.1557 Cl  0  0  0  0  0  0  0  0  0  0  0  0
    5.1978   -8.9828   22.6496 C   0  0  0  0  0  0  0  0  0  0  0  0
    5.4389   -7.5567   21.7793 Cl  0  0  0  0  0  0  0  0  0  0  0  0
    4.8957  -10.4254   21.8342 S   0  0  0  0  0  0  0  0  0  0  0  0
  1  2  2  0
  2  3  1  0
  3  4  1  0
  4  5  1  0
  5  6  1  0
  6  7  2  0
  7  8  1  0
  8  9  1  0
  2 10  1  0
 10 11  2  0
 11 12  1  0
 12 13  1  0
 12 14  2  0
 14 15  1  0
 14 16  1  0
  9  5  2  0
 16 10  1  0
M  END
>  <inchikey>  (1450) 
XSRLEECYFQZCCX-UHFFFAOYSA-N

>  <tags>  (1450) 
fragmenstein_placed,CpKRS_FrAncestor_bulkdock_iter2

>  <ref_pdb>  (1450) 
x0654b

>  <energy_score>  (1450) 
-57.289674

>  <distance_score>  (1450) 
0.83737

>  <HIPPO Pose ID>  (1450) 
60703

>  <ref_mols>  (1450) 
x0646a

>  <smiles>  (1450) 
O=C(NCc1cc[nH]c1)c1nc(Cl)c(Cl)s1

>  <HIPPO Compound ID>  (1450) 
453040

>  <alias>  (1450) 
XSRLEECYFQZCCX-UHFFFAOYSA-N-P55

>  <subsites>  (1450) 


>  <placement_batch>  (1450) 
CpKRS_FrAncestor_bulkdock_iter2

>  <name>  (1450) 
XSRLEECYFQZCCX-UHFFFAOYSA-N-P55

$$$$
KZBCOTZHHCSEQM-UHFFFAOYSA-N-P55
     RDKit          3D

 15 16  0  0  0  0  0  0  0  0999 V2000
    3.8592  -12.2782   21.9308 O   0  0  0  0  0  0  0  0  0  0  0  0
    4.1686  -11.8375   22.9637 C   0  0  0  0  0  0  0  0  0  0  0  0
    4.2689  -12.5085   24.3444 N   0  0  0  0  0  0  0  0  0  0  0  0
    4.1034  -13.8703   24.7248 C   0  0  0  0  0  0  0  0  0  0  0  0
    3.3094  -14.1176   25.9497 C   0  0  0  0  0  0  0  0  0  0  0  0
    3.6623  -15.0496   26.9731 C   0  0  0  0  0  0  0  0  0  0  0  0
    2.6079  -15.1362   27.8519 C   0  0  0  0  0  0  0  0  0  0  0  0
    1.6244  -14.2921   27.4096 N   0  0  0  0  0  0  0  0  0  0  0  0
    2.0436  -13.6591   26.2669 C   0  0  0  0  0  0  0  0  0  0  0  0
    4.6467  -10.4578   23.0656 C   0  0  0  0  0  0  0  0  0  0  0  0
    4.8534   -9.8399   24.2115 N   0  0  0  0  0  0  0  0  0  0  0  0
    5.3120   -8.5648   23.9546 C   0  0  0  0  0  0  0  0  0  0  0  0
    5.6326   -7.4904   25.2324 Cl  0  0  0  0  0  0  0  0  0  0  0  0
    5.4420   -8.2347   22.6241 C   0  0  0  0  0  0  0  0  0  0  0  0
    5.0349   -9.5700   21.6498 S   0  0  0  0  0  0  0  0  0  0  0  0
  1  2  2  0
  2  3  1  0
  3  4  1  0
  4  5  1  0
  5  6  1  0
  6  7  2  0
  7  8  1  0
  8  9  1  0
  2 10  1  0
 10 11  2  0
 11 12  1  0
 12 13  1  0
 12 14  2  0
 14 15  1  0
  9  5  2  0
 15 10  1  0
M  END
>  <inchikey>  (1451) 
KZBCOTZHHCSEQM-UHFFFAOYSA-N

>  <tags>  (1451) 
fragmenstein_placed,CpKRS_FrAncestor_bulkdock_iter2

>  <ref_pdb>  (1451) 
x0654b

>  <energy_score>  (1451) 
-51.246965

>  <distance_score>  (1451) 
0.779598

>  <HIPPO Pose ID>  (1451) 
60704

>  <ref_mols>  (1451) 
x0646a

>  <smiles>  (1451) 
O=C(NCc1cc[nH]c1)c1nc(Cl)cs1

>  <HIPPO Compound ID>  (1451) 
453041

>  <alias>  (1451) 
KZBCOTZHHCSEQM-UHFFFAOYSA-N-P55

>  <subsites>  (1451) 


>  <placement_batch>  (1451) 
CpKRS_FrAncestor_bulkdock_iter2

>  <name>  (1451) 
KZBCOTZHHCSEQM-UHFFFAOYSA-N-P55

$$$$
DZSHFDCBDCJXNC-UHFFFAOYSA-N-P16
     RDKit          3D

 17 18  0  0  0  0  0  0  0  0999 V2000
    5.9045  -13.8594   25.0407 O   0  0  0  0  0  0  0  0  0  0  0  0
    4.7780  -13.6798   24.8059 C   0  0  0  0  0  0  0  0  0  0  0  0
    4.1071  -13.0117   23.5957 N   0  0  0  0  0  0  0  0  0  0  0  0
    4.6721  -12.5086   22.3765 C   0  0  0  0  0  0  0  0  0  0  0  0
    4.9280  -11.0589   22.4939 C   0  0  0  0  0  0  0  0  0  0  0  0
    5.3770  -10.2320   23.4942 C   0  0  0  0  0  0  0  0  0  0  0  0
    5.4360   -8.9636   22.8993 C   0  0  0  0  0  0  0  0  0  0  0  0
    5.0172   -8.9870   21.6329 N   0  0  0  0  0  0  0  0  0  0  0  0
    4.7294  -10.3177   21.3686 O   0  0  0  0  0  0  0  0  0  0  0  0
    3.7901  -14.1569   25.8323 C   0  0  0  0  0  0  0  0  0  0  0  0
    4.2248  -15.0981   26.7832 C   0  0  0  0  0  0  0  0  0  0  0  0
    3.3763  -15.5320   27.8061 C   0  0  0  0  0  0  0  0  0  0  0  0
    2.0769  -15.0384   27.8873 C   0  0  0  0  0  0  0  0  0  0  0  0
    1.6255  -14.1399   26.9232 C   0  0  0  0  0  0  0  0  0  0  0  0
   -0.1736  -13.5603   26.9454 Br  0  0  0  0  0  0  0  0  0  0  0  0
    2.4801  -13.6876   25.9167 C   0  0  0  0  0  0  0  0  0  0  0  0
    2.0176  -12.7829   25.0363 F   0  0  0  0  0  0  0  0  0  0  0  0
  1  2  2  0
  2  3  1  0
  3  4  1  0
  4  5  1  0
  5  6  2  0
  6  7  1  0
  7  8  2  0
  8  9  1  0
  2 10  1  0
 10 11  2  0
 11 12  1  0
 12 13  2  0
 13 14  1  0
 14 15  1  0
 14 16  2  0
 16 17  1  0
  9  5  1  0
 16 10  1  0
M  END
>  <inchikey>  (1452) 
DZSHFDCBDCJXNC-UHFFFAOYSA-N

>  <tags>  (1452) 
fragmenstein_placed,CpKRS_FrAncestor_bulkdock_iter2

>  <ref_pdb>  (1452) 
x0654b

>  <energy_score>  (1452) 
-10.993035

>  <distance_score>  (1452) 
0.400138

>  <HIPPO Pose ID>  (1452) 
60712

>  <ref_mols>  (1452) 
x0426a

>  <smiles>  (1452) 
O=C(NCc1ccno1)c1cccc(Br)c1F

>  <HIPPO Compound ID>  (1452) 
236430

>  <alias>  (1452) 
DZSHFDCBDCJXNC-UHFFFAOYSA-N-P16

>  <subsites>  (1452) 


>  <placement_batch>  (1452) 
CpKRS_FrAncestor_bulkdock_iter2

>  <name>  (1452) 
DZSHFDCBDCJXNC-UHFFFAOYSA-N-P16

$$$$
XNTWHOMFOJXTRL-UHFFFAOYSA-N-P16
     RDKit          3D

 16 17  0  0  0  0  0  0  0  0999 V2000
    5.8904  -13.5109   25.1455 O   0  0  0  0  0  0  0  0  0  0  0  0
    4.7839  -13.5862   24.7928 C   0  0  0  0  0  0  0  0  0  0  0  0
    4.1204  -13.1179   23.4889 N   0  0  0  0  0  0  0  0  0  0  0  0
    4.6934  -12.5440   22.3050 C   0  0  0  0  0  0  0  0  0  0  0  0
    4.9198  -11.0946   22.4834 C   0  0  0  0  0  0  0  0  0  0  0  0
    5.3711  -10.3018   23.5097 C   0  0  0  0  0  0  0  0  0  0  0  0
    5.4053   -9.0096   22.9661 C   0  0  0  0  0  0  0  0  0  0  0  0
    4.9657   -8.9874   21.7066 N   0  0  0  0  0  0  0  0  0  0  0  0
    4.6948  -10.3108   21.3922 O   0  0  0  0  0  0  0  0  0  0  0  0
    3.7912  -14.1356   25.7756 C   0  0  0  0  0  0  0  0  0  0  0  0
    4.2312  -15.1028   26.6924 C   0  0  0  0  0  0  0  0  0  0  0  0
    3.3845  -15.5597   27.7047 C   0  0  0  0  0  0  0  0  0  0  0  0
    2.0887  -15.0581   27.8045 C   0  0  0  0  0  0  0  0  0  0  0  0
    1.6386  -14.1261   26.8723 C   0  0  0  0  0  0  0  0  0  0  0  0
   -0.1489  -13.5184   26.9215 Br  0  0  0  0  0  0  0  0  0  0  0  0
    2.4855  -13.6421   25.8762 C   0  0  0  0  0  0  0  0  0  0  0  0
  1  2  2  0
  2  3  1  0
  3  4  1  0
  4  5  1  0
  5  6  2  0
  6  7  1  0
  7  8  2  0
  8  9  1  0
  2 10  1  0
 10 11  2  0
 11 12  1  0
 12 13  2  0
 13 14  1  0
 14 15  1  0
 14 16  2  0
  9  5  1  0
 16 10  1  0
M  END
>  <inchikey>  (1453) 
XNTWHOMFOJXTRL-UHFFFAOYSA-N

>  <tags>  (1453) 
fragmenstein_placed,CpKRS_FrAncestor_bulkdock_iter2

>  <ref_pdb>  (1453) 
x0654b

>  <energy_score>  (1453) 
-11.131448

>  <distance_score>  (1453) 
0.455085

>  <HIPPO Pose ID>  (1453) 
60714

>  <ref_mols>  (1453) 
x0426a

>  <smiles>  (1453) 
O=C(NCc1ccno1)c1cccc(Br)c1

>  <HIPPO Compound ID>  (1453) 
453047

>  <alias>  (1453) 
XNTWHOMFOJXTRL-UHFFFAOYSA-N-P16

>  <subsites>  (1453) 


>  <placement_batch>  (1453) 
CpKRS_FrAncestor_bulkdock_iter2

>  <name>  (1453) 
XNTWHOMFOJXTRL-UHFFFAOYSA-N-P16

$$$$
IHSZVRWDRNRTMB-UHFFFAOYSA-N-P16
     RDKit          3D

 17 18  0  0  0  0  0  0  0  0999 V2000
    5.8733  -13.9137   25.0559 O   0  0  0  0  0  0  0  0  0  0  0  0
    4.7465  -13.7061   24.8482 C   0  0  0  0  0  0  0  0  0  0  0  0
    4.0637  -13.0237   23.6537 N   0  0  0  0  0  0  0  0  0  0  0  0
    4.6119  -12.5366   22.4187 C   0  0  0  0  0  0  0  0  0  0  0  0
    4.8907  -11.0894   22.5158 C   0  0  0  0  0  0  0  0  0  0  0  0
    5.3466  -10.2541   23.5060 C   0  0  0  0  0  0  0  0  0  0  0  0
    5.4336   -8.9967   22.8911 C   0  0  0  0  0  0  0  0  0  0  0  0
    5.0257   -9.0336   21.6215 N   0  0  0  0  0  0  0  0  0  0  0  0
    4.7160  -10.3632   21.3766 O   0  0  0  0  0  0  0  0  0  0  0  0
    3.7694  -14.1820   25.8864 C   0  0  0  0  0  0  0  0  0  0  0  0
    4.2103  -15.1445   26.8135 C   0  0  0  0  0  0  0  0  0  0  0  0
    3.3806  -15.5785   27.8512 C   0  0  0  0  0  0  0  0  0  0  0  0
    2.0952  -15.0586   27.9747 C   0  0  0  0  0  0  0  0  0  0  0  0
    1.6361  -14.1336   27.0389 C   0  0  0  0  0  0  0  0  0  0  0  0
    0.0137  -13.5600   27.1421 Cl  0  0  0  0  0  0  0  0  0  0  0  0
    2.4703  -13.6885   26.0103 C   0  0  0  0  0  0  0  0  0  0  0  0
    1.9987  -12.7709   25.1484 F   0  0  0  0  0  0  0  0  0  0  0  0
  1  2  2  0
  2  3  1  0
  3  4  1  0
  4  5  1  0
  5  6  2  0
  6  7  1  0
  7  8  2  0
  8  9  1  0
  2 10  1  0
 10 11  2  0
 11 12  1  0
 12 13  2  0
 13 14  1  0
 14 15  1  0
 14 16  2  0
 16 17  1  0
  9  5  1  0
 16 10  1  0
M  END
>  <inchikey>  (1454) 
IHSZVRWDRNRTMB-UHFFFAOYSA-N

>  <tags>  (1454) 
fragmenstein_placed,CpKRS_FrAncestor_bulkdock_iter2

>  <ref_pdb>  (1454) 
x0654b

>  <energy_score>  (1454) 
-13.310825

>  <distance_score>  (1454) 
0.357162

>  <HIPPO Pose ID>  (1454) 
60716

>  <ref_mols>  (1454) 
x0426a

>  <smiles>  (1454) 
O=C(NCc1ccno1)c1cccc(Cl)c1F

>  <HIPPO Compound ID>  (1454) 
236419

>  <alias>  (1454) 
IHSZVRWDRNRTMB-UHFFFAOYSA-N-P16

>  <subsites>  (1454) 


>  <placement_batch>  (1454) 
CpKRS_FrAncestor_bulkdock_iter2

>  <name>  (1454) 
IHSZVRWDRNRTMB-UHFFFAOYSA-N-P16

$$$$
RRIXVHKHZHFNRF-UHFFFAOYSA-N-P16
     RDKit          3D

 16 17  0  0  0  0  0  0  0  0999 V2000
    5.8729  -13.5660   25.1604 O   0  0  0  0  0  0  0  0  0  0  0  0
    4.7565  -13.6154   24.8364 C   0  0  0  0  0  0  0  0  0  0  0  0
    4.0720  -13.1356   23.5491 N   0  0  0  0  0  0  0  0  0  0  0  0
    4.6289  -12.5792   22.3474 C   0  0  0  0  0  0  0  0  0  0  0  0
    4.8844  -11.1321   22.5062 C   0  0  0  0  0  0  0  0  0  0  0  0
    5.3485  -10.3335   23.5222 C   0  0  0  0  0  0  0  0  0  0  0  0
    5.4115   -9.0502   22.9600 C   0  0  0  0  0  0  0  0  0  0  0  0
    4.9782   -9.0376   21.6982 N   0  0  0  0  0  0  0  0  0  0  0  0
    4.6808  -10.3597   21.4024 O   0  0  0  0  0  0  0  0  0  0  0  0
    3.7739  -14.1624   25.8296 C   0  0  0  0  0  0  0  0  0  0  0  0
    4.2145  -15.1482   26.7257 C   0  0  0  0  0  0  0  0  0  0  0  0
    3.3795  -15.6007   27.7491 C   0  0  0  0  0  0  0  0  0  0  0  0
    2.0985  -15.0701   27.8840 C   0  0  0  0  0  0  0  0  0  0  0  0
    1.6477  -14.1139   26.9761 C   0  0  0  0  0  0  0  0  0  0  0  0
    0.0405  -13.5081   27.0974 Cl  0  0  0  0  0  0  0  0  0  0  0  0
    2.4799  -13.6434   25.9604 C   0  0  0  0  0  0  0  0  0  0  0  0
  1  2  2  0
  2  3  1  0
  3  4  1  0
  4  5  1  0
  5  6  2  0
  6  7  1  0
  7  8  2  0
  8  9  1  0
  2 10  1  0
 10 11  2  0
 11 12  1  0
 12 13  2  0
 13 14  1  0
 14 15  1  0
 14 16  2  0
  9  5  1  0
 16 10  1  0
M  END
>  <inchikey>  (1455) 
RRIXVHKHZHFNRF-UHFFFAOYSA-N

>  <tags>  (1455) 
fragmenstein_placed,CpKRS_FrAncestor_bulkdock_iter2

>  <ref_pdb>  (1455) 
x0654b

>  <energy_score>  (1455) 
-11.736287

>  <distance_score>  (1455) 
0.412057

>  <HIPPO Pose ID>  (1455) 
60718

>  <ref_mols>  (1455) 
x0426a

>  <smiles>  (1455) 
O=C(NCc1ccno1)c1cccc(Cl)c1

>  <HIPPO Compound ID>  (1455) 
453048

>  <alias>  (1455) 
RRIXVHKHZHFNRF-UHFFFAOYSA-N-P16

>  <subsites>  (1455) 


>  <placement_batch>  (1455) 
CpKRS_FrAncestor_bulkdock_iter2

>  <name>  (1455) 
RRIXVHKHZHFNRF-UHFFFAOYSA-N-P16

$$$$
UMDFUGWRFDVRDU-UHFFFAOYSA-N-P16
     RDKit          3D

 17 18  0  0  0  0  0  0  0  0999 V2000
    5.6576  -14.0799   25.0988 O   0  0  0  0  0  0  0  0  0  0  0  0
    4.5673  -13.7318   24.8838 C   0  0  0  0  0  0  0  0  0  0  0  0
    3.9851  -12.9617   23.6883 N   0  0  0  0  0  0  0  0  0  0  0  0
    4.6005  -12.5397   22.4609 C   0  0  0  0  0  0  0  0  0  0  0  0
    4.8936  -11.0930   22.5206 C   0  0  0  0  0  0  0  0  0  0  0  0
    5.3636  -10.2406   23.4898 C   0  0  0  0  0  0  0  0  0  0  0  0
    5.4515   -8.9964   22.8488 C   0  0  0  0  0  0  0  0  0  0  0  0
    5.0309   -9.0566   21.5843 N   0  0  0  0  0  0  0  0  0  0  0  0
    4.7120  -10.3891   21.3689 O   0  0  0  0  0  0  0  0  0  0  0  0
    3.5269  -14.0728   25.9170 C   0  0  0  0  0  0  0  0  0  0  0  0
    3.8429  -15.0468   26.8817 C   0  0  0  0  0  0  0  0  0  0  0  0
    2.9408  -15.3410   27.9057 C   0  0  0  0  0  0  0  0  0  0  0  0
    3.3327  -16.4941   29.1148 Cl  0  0  0  0  0  0  0  0  0  0  0  0
    1.7140  -14.6862   27.9836 C   0  0  0  0  0  0  0  0  0  0  0  0
    1.3812  -13.7382   27.0224 C   0  0  0  0  0  0  0  0  0  0  0  0
    2.2870  -13.4325   26.0058 C   0  0  0  0  0  0  0  0  0  0  0  0
    1.9234  -12.4825   25.1304 F   0  0  0  0  0  0  0  0  0  0  0  0
  1  2  2  0
  2  3  1  0
  3  4  1  0
  4  5  1  0
  5  6  2  0
  6  7  1  0
  7  8  2  0
  8  9  1  0
  2 10  1  0
 10 11  2  0
 11 12  1  0
 12 13  1  0
 12 14  2  0
 14 15  1  0
 15 16  2  0
 16 17  1  0
  9  5  1  0
 16 10  1  0
M  END
>  <inchikey>  (1456) 
UMDFUGWRFDVRDU-UHFFFAOYSA-N

>  <tags>  (1456) 
fragmenstein_placed,CpKRS_FrAncestor_bulkdock_iter2

>  <ref_pdb>  (1456) 
x0654b

>  <energy_score>  (1456) 
-1.037684

>  <distance_score>  (1456) 
0.326181

>  <HIPPO Pose ID>  (1456) 
60720

>  <ref_mols>  (1456) 
x0426a

>  <smiles>  (1456) 
O=C(NCc1ccno1)c1cc(Cl)ccc1F

>  <HIPPO Compound ID>  (1456) 
236400

>  <alias>  (1456) 
UMDFUGWRFDVRDU-UHFFFAOYSA-N-P16

>  <subsites>  (1456) 


>  <placement_batch>  (1456) 
CpKRS_FrAncestor_bulkdock_iter2

>  <name>  (1456) 
UMDFUGWRFDVRDU-UHFFFAOYSA-N-P16

$$$$
DASKORPFBJZFAX-UHFFFAOYSA-N-P16
     RDKit          3D

 17 18  0  0  0  0  0  0  0  0999 V2000
    5.7086  -13.6223   25.2162 O   0  0  0  0  0  0  0  0  0  0  0  0
    4.6057  -13.5966   24.8450 C   0  0  0  0  0  0  0  0  0  0  0  0
    4.0105  -13.0781   23.5264 N   0  0  0  0  0  0  0  0  0  0  0  0
    4.6547  -12.5690   22.3485 C   0  0  0  0  0  0  0  0  0  0  0  0
    4.9096  -11.1202   22.4939 C   0  0  0  0  0  0  0  0  0  0  0  0
    5.3807  -10.3164   23.5028 C   0  0  0  0  0  0  0  0  0  0  0  0
    5.4293   -9.0344   22.9362 C   0  0  0  0  0  0  0  0  0  0  0  0
    4.9798   -9.0282   21.6801 N   0  0  0  0  0  0  0  0  0  0  0  0
    4.6872  -10.3526   21.3910 O   0  0  0  0  0  0  0  0  0  0  0  0
    3.5483  -14.0435   25.8203 C   0  0  0  0  0  0  0  0  0  0  0  0
    2.2698  -13.4692   25.8583 C   0  0  0  0  0  0  0  0  0  0  0  0
    1.3626  -13.8524   26.8455 C   0  0  0  0  0  0  0  0  0  0  0  0
   -0.2301  -13.2001   26.8336 Cl  0  0  0  0  0  0  0  0  0  0  0  0
    1.7219  -14.7601   27.8315 C   0  0  0  0  0  0  0  0  0  0  0  0
    2.9893  -15.3301   27.7990 C   0  0  0  0  0  0  0  0  0  0  0  0
    3.4109  -16.4443   29.0352 Cl  0  0  0  0  0  0  0  0  0  0  0  0
    3.9006  -14.9878   26.7991 C   0  0  0  0  0  0  0  0  0  0  0  0
  1  2  2  0
  2  3  1  0
  3  4  1  0
  4  5  1  0
  5  6  2  0
  6  7  1  0
  7  8  2  0
  8  9  1  0
  2 10  1  0
 10 11  2  0
 11 12  1  0
 12 13  1  0
 12 14  2  0
 14 15  1  0
 15 16  1  0
 15 17  2  0
  9  5  1  0
 17 10  1  0
M  END
>  <inchikey>  (1457) 
DASKORPFBJZFAX-UHFFFAOYSA-N

>  <tags>  (1457) 
fragmenstein_placed,CpKRS_FrAncestor_bulkdock_iter2

>  <ref_pdb>  (1457) 
x0654b

>  <energy_score>  (1457) 
-1.785092

>  <distance_score>  (1457) 
0.406794

>  <HIPPO Pose ID>  (1457) 
60722

>  <ref_mols>  (1457) 
x0426a

>  <smiles>  (1457) 
O=C(NCc1ccno1)c1cc(Cl)cc(Cl)c1

>  <HIPPO Compound ID>  (1457) 
236388

>  <alias>  (1457) 
DASKORPFBJZFAX-UHFFFAOYSA-N-P16

>  <subsites>  (1457) 


>  <placement_batch>  (1457) 
CpKRS_FrAncestor_bulkdock_iter2

>  <name>  (1457) 
DASKORPFBJZFAX-UHFFFAOYSA-N-P16

$$$$
IXBYGRLUAGCUHS-UHFFFAOYSA-N-P16
     RDKit          3D

 17 18  0  0  0  0  0  0  0  0999 V2000
    5.8504  -13.9861   25.0764 O   0  0  0  0  0  0  0  0  0  0  0  0
    4.7170  -13.7864   24.8999 C   0  0  0  0  0  0  0  0  0  0  0  0
    3.9930  -13.1497   23.7052 N   0  0  0  0  0  0  0  0  0  0  0  0
    4.5129  -12.5407   22.5211 C   0  0  0  0  0  0  0  0  0  0  0  0
    4.5103  -11.0495   22.5896 C   0  0  0  0  0  0  0  0  0  0  0  0
    5.1625  -10.1546   21.7635 C   0  0  0  0  0  0  0  0  0  0  0  0
    4.8694   -8.8139   22.1201 C   0  0  0  0  0  0  0  0  0  0  0  0
    4.0093   -8.6405   23.1193 N   0  0  0  0  0  0  0  0  0  0  0  0
    3.6161  -10.1365   23.7227 S   0  0  0  0  0  0  0  0  0  0  0  0
    3.7632  -14.2531   25.9636 C   0  0  0  0  0  0  0  0  0  0  0  0
    4.2227  -15.1966   26.8987 C   0  0  0  0  0  0  0  0  0  0  0  0
    3.4052  -15.6228   27.9498 C   0  0  0  0  0  0  0  0  0  0  0  0
    2.1153  -15.1139   28.0784 C   0  0  0  0  0  0  0  0  0  0  0  0
    1.6398  -14.2062   27.1349 C   0  0  0  0  0  0  0  0  0  0  0  0
    0.0133  -13.6458   27.2334 Cl  0  0  0  0  0  0  0  0  0  0  0  0
    2.4607  -13.7690   26.0944 C   0  0  0  0  0  0  0  0  0  0  0  0
    1.9678  -12.8733   25.2214 F   0  0  0  0  0  0  0  0  0  0  0  0
  1  2  2  0
  2  3  1  0
  3  4  1  0
  4  5  1  0
  5  6  2  0
  6  7  1  0
  7  8  2  0
  8  9  1  0
  2 10  1  0
 10 11  2  0
 11 12  1  0
 12 13  2  0
 13 14  1  0
 14 15  1  0
 14 16  2  0
 16 17  1  0
  9  5  1  0
 16 10  1  0
M  END
>  <inchikey>  (1458) 
IXBYGRLUAGCUHS-UHFFFAOYSA-N

>  <tags>  (1458) 
fragmenstein_placed,CpKRS_FrAncestor_bulkdock_iter2

>  <ref_pdb>  (1458) 
x0654b

>  <energy_score>  (1458) 
-5.828917

>  <distance_score>  (1458) 
0.660966

>  <HIPPO Pose ID>  (1458) 
60726

>  <ref_mols>  (1458) 
x0426a

>  <smiles>  (1458) 
O=C(NCc1ccns1)c1cccc(Cl)c1F

>  <HIPPO Compound ID>  (1458) 
238331

>  <alias>  (1458) 
IXBYGRLUAGCUHS-UHFFFAOYSA-N-P16

>  <subsites>  (1458) 


>  <placement_batch>  (1458) 
CpKRS_FrAncestor_bulkdock_iter2

>  <name>  (1458) 
IXBYGRLUAGCUHS-UHFFFAOYSA-N-P16

$$$$
KPEQLVCTNFZAHY-UHFFFAOYSA-N-P16
     RDKit          3D

 17 18  0  0  0  0  0  0  0  0999 V2000
    5.5885  -14.2142   25.1338 O   0  0  0  0  0  0  0  0  0  0  0  0
    4.5052  -13.8280   24.9506 C   0  0  0  0  0  0  0  0  0  0  0  0
    3.9253  -13.0009   23.7931 N   0  0  0  0  0  0  0  0  0  0  0  0
    4.5290  -12.5560   22.5752 C   0  0  0  0  0  0  0  0  0  0  0  0
    4.6905  -11.0719   22.5328 C   0  0  0  0  0  0  0  0  0  0  0  0
    5.0135  -10.2777   21.4495 C   0  0  0  0  0  0  0  0  0  0  0  0
    5.0973   -8.9103   21.8186 C   0  0  0  0  0  0  0  0  0  0  0  0
    4.7932   -8.6171   23.0776 N   0  0  0  0  0  0  0  0  0  0  0  0
    4.5333  -10.0411   23.8841 S   0  0  0  0  0  0  0  0  0  0  0  0
    3.4809  -14.1448   26.0067 C   0  0  0  0  0  0  0  0  0  0  0  0
    3.8075  -15.1146   26.9708 C   0  0  0  0  0  0  0  0  0  0  0  0
    2.9240  -15.3936   28.0137 C   0  0  0  0  0  0  0  0  0  0  0  0
    3.3352  -16.5389   29.2215 Cl  0  0  0  0  0  0  0  0  0  0  0  0
    1.7035  -14.7302   28.1108 C   0  0  0  0  0  0  0  0  0  0  0  0
    1.3588  -13.7867   27.1499 C   0  0  0  0  0  0  0  0  0  0  0  0
    2.2471  -13.4947   26.1150 C   0  0  0  0  0  0  0  0  0  0  0  0
    1.8734  -12.5444   25.2437 F   0  0  0  0  0  0  0  0  0  0  0  0
  1  2  2  0
  2  3  1  0
  3  4  1  0
  4  5  1  0
  5  6  2  0
  6  7  1  0
  7  8  2  0
  8  9  1  0
  2 10  1  0
 10 11  2  0
 11 12  1  0
 12 13  1  0
 12 14  2  0
 14 15  1  0
 15 16  2  0
 16 17  1  0
  9  5  1  0
 16 10  1  0
M  END
>  <inchikey>  (1459) 
KPEQLVCTNFZAHY-UHFFFAOYSA-N

>  <tags>  (1459) 
fragmenstein_placed,CpKRS_FrAncestor_bulkdock_iter2

>  <ref_pdb>  (1459) 
x0654b

>  <energy_score>  (1459) 
-1.946804

>  <distance_score>  (1459) 
0.39497

>  <HIPPO Pose ID>  (1459) 
60730

>  <ref_mols>  (1459) 
x0426a

>  <smiles>  (1459) 
O=C(NCc1ccns1)c1cc(Cl)ccc1F

>  <HIPPO Compound ID>  (1459) 
238321

>  <alias>  (1459) 
KPEQLVCTNFZAHY-UHFFFAOYSA-N-P16

>  <subsites>  (1459) 


>  <placement_batch>  (1459) 
CpKRS_FrAncestor_bulkdock_iter2

>  <name>  (1459) 
KPEQLVCTNFZAHY-UHFFFAOYSA-N-P16

$$$$
UFNZSDLARZXONO-UHFFFAOYSA-N-P64
     RDKit          3D

 16 17  0  0  0  0  0  0  0  0999 V2000
    5.5250  -14.4434   23.9967 O   0  0  0  0  0  0  0  0  0  0  0  0
    4.7007  -13.6604   24.2437 C   0  0  0  0  0  0  0  0  0  0  0  0
    4.3670  -12.3205   23.5703 N   0  0  0  0  0  0  0  0  0  0  0  0
    4.9126  -11.7079   22.3982 C   0  0  0  0  0  0  0  0  0  0  0  0
    5.0912  -10.2598   22.6366 C   0  0  0  0  0  0  0  0  0  0  0  0
    5.6337   -9.5436   23.6820 C   0  0  0  0  0  0  0  0  0  0  0  0
    5.5142   -8.1957   23.3090 C   0  0  0  0  0  0  0  0  0  0  0  0
    4.9302   -8.0545   22.1156 N   0  0  0  0  0  0  0  0  0  0  0  0
    4.7571   -9.3219   21.6987 N   0  0  0  0  0  0  0  0  0  0  0  0
    3.7758  -13.9339   25.3674 C   0  0  0  0  0  0  0  0  0  0  0  0
    4.1696  -15.2814   26.3955 S   0  0  0  0  0  0  0  0  0  0  0  0
    2.8004  -15.0497   27.3431 C   0  0  0  0  0  0  0  0  0  0  0  0
    2.4892  -16.0943   28.6684 Cl  0  0  0  0  0  0  0  0  0  0  0  0
    2.0310  -13.9949   26.9411 C   0  0  0  0  0  0  0  0  0  0  0  0
    2.5915  -13.3489   25.7963 C   0  0  0  0  0  0  0  0  0  0  0  0
    1.7714  -12.0058   25.1094 Cl  0  0  0  0  0  0  0  0  0  0  0  0
  1  2  2  0
  2  3  1  0
  3  4  1  0
  4  5  1  0
  5  6  2  0
  6  7  1  0
  7  8  2  0
  8  9  1  0
  2 10  1  0
 10 11  1  0
 11 12  1  0
 12 13  1  0
 12 14  2  0
 14 15  1  0
 15 16  1  0
  9  5  1  0
 15 10  2  0
M  END
>  <inchikey>  (1460) 
UFNZSDLARZXONO-UHFFFAOYSA-N

>  <tags>  (1460) 
fragmenstein_placed,CpKRS_FrAncestor_bulkdock_iter2

>  <ref_pdb>  (1460) 
x0654b

>  <energy_score>  (1460) 
-7.198749

>  <distance_score>  (1460) 
0.48557

>  <HIPPO Pose ID>  (1460) 
60733

>  <ref_mols>  (1460) 
x0787b

>  <smiles>  (1460) 
O=C(NCc1ccn[nH]1)c1sc(Cl)cc1Cl

>  <HIPPO Compound ID>  (1460) 
453051

>  <alias>  (1460) 
UFNZSDLARZXONO-UHFFFAOYSA-N-P64

>  <subsites>  (1460) 


>  <placement_batch>  (1460) 
CpKRS_FrAncestor_bulkdock_iter2

>  <name>  (1460) 
UFNZSDLARZXONO-UHFFFAOYSA-N-P64

$$$$
OPGBYYPTTHUDDL-UHFFFAOYSA-N-P64
     RDKit          3D

 15 16  0  0  0  0  0  0  0  0999 V2000
    5.6628  -13.9322   24.5785 O   0  0  0  0  0  0  0  0  0  0  0  0
    4.6359  -13.4103   24.4175 C   0  0  0  0  0  0  0  0  0  0  0  0
    4.1879  -12.4058   23.3485 N   0  0  0  0  0  0  0  0  0  0  0  0
    4.9340  -11.7572   22.3061 C   0  0  0  0  0  0  0  0  0  0  0  0
    5.1678  -10.3300   22.6547 C   0  0  0  0  0  0  0  0  0  0  0  0
    5.5511   -9.7390   23.8410 C   0  0  0  0  0  0  0  0  0  0  0  0
    5.6668   -8.3293   23.7008 C   0  0  0  0  0  0  0  0  0  0  0  0
    5.3771   -7.8301   22.5030 N   0  0  0  0  0  0  0  0  0  0  0  0
    5.0625   -9.0942   21.4821 S   0  0  0  0  0  0  0  0  0  0  0  0
    3.5317  -13.7562   25.3065 C   0  0  0  0  0  0  0  0  0  0  0  0
    2.1669  -13.5160   25.2635 C   0  0  0  0  0  0  0  0  0  0  0  0
    1.5881  -14.1772   26.3635 C   0  0  0  0  0  0  0  0  0  0  0  0
   -0.2525  -14.2201   26.6838 Br  0  0  0  0  0  0  0  0  0  0  0  0
    2.5779  -14.7858   27.0859 C   0  0  0  0  0  0  0  0  0  0  0  0
    3.7578  -14.5171   26.4428 N   0  0  0  0  0  0  0  0  0  0  0  0
  1  2  2  0
  2  3  1  0
  3  4  1  0
  4  5  1  0
  5  6  2  0
  6  7  1  0
  7  8  2  0
  8  9  1  0
  2 10  1  0
 10 11  2  0
 11 12  1  0
 12 13  1  0
 12 14  2  0
 14 15  1  0
  9  5  1  0
 15 10  1  0
M  END
>  <inchikey>  (1461) 
OPGBYYPTTHUDDL-UHFFFAOYSA-N

>  <tags>  (1461) 
fragmenstein_placed,CpKRS_FrAncestor_bulkdock_iter2

>  <ref_pdb>  (1461) 
x0654b

>  <energy_score>  (1461) 
-12.812678

>  <distance_score>  (1461) 
0.476287

>  <HIPPO Pose ID>  (1461) 
60735

>  <ref_mols>  (1461) 
x0787b

>  <smiles>  (1461) 
O=C(NCc1ccns1)c1cc(Br)c[nH]1

>  <HIPPO Compound ID>  (1461) 
453052

>  <alias>  (1461) 
OPGBYYPTTHUDDL-UHFFFAOYSA-N-P64

>  <subsites>  (1461) 


>  <placement_batch>  (1461) 
CpKRS_FrAncestor_bulkdock_iter2

>  <name>  (1461) 
OPGBYYPTTHUDDL-UHFFFAOYSA-N-P64

$$$$
WZCRZDVKUHQHBJ-UHFFFAOYSA-N-P64
     RDKit          3D

 18 19  0  0  0  0  0  0  0  0999 V2000
    5.4918  -14.2641   24.3405 O   0  0  0  0  0  0  0  0  0  0  0  0
    4.5903  -13.5352   24.4364 C   0  0  0  0  0  0  0  0  0  0  0  0
    4.2377  -12.2792   23.6310 N   0  0  0  0  0  0  0  0  0  0  0  0
    4.8680  -11.7039   22.4739 C   0  0  0  0  0  0  0  0  0  0  0  0
    5.1559  -10.2657   22.7236 C   0  0  0  0  0  0  0  0  0  0  0  0
    5.6122   -9.6139   23.8519 C   0  0  0  0  0  0  0  0  0  0  0  0
    5.7367   -8.2169   23.6257 C   0  0  0  0  0  0  0  0  0  0  0  0
    5.3940   -7.7835   22.4168 N   0  0  0  0  0  0  0  0  0  0  0  0
    5.0244   -9.1001   21.4846 S   0  0  0  0  0  0  0  0  0  0  0  0
    3.5831  -13.8093   25.4638 C   0  0  0  0  0  0  0  0  0  0  0  0
    2.3765  -13.2229   25.8134 C   0  0  0  0  0  0  0  0  0  0  0  0
    1.8274  -13.9526   26.8998 C   0  0  0  0  0  0  0  0  0  0  0  0
    2.7015  -14.9763   27.2024 C   0  0  0  0  0  0  0  0  0  0  0  0
    2.6520  -16.0577   28.2139 C   0  0  0  0  0  0  0  0  0  0  0  0
    1.3973  -16.2518   28.6970 F   0  0  0  0  0  0  0  0  0  0  0  0
    3.0780  -17.2333   27.7014 F   0  0  0  0  0  0  0  0  0  0  0  0
    3.4410  -15.7929   29.2837 F   0  0  0  0  0  0  0  0  0  0  0  0
    3.7658  -14.8623   26.3431 N   0  0  0  0  0  0  0  0  0  0  0  0
  1  2  2  0
  2  3  1  0
  3  4  1  0
  4  5  1  0
  5  6  2  0
  6  7  1  0
  7  8  2  0
  8  9  1  0
  2 10  1  0
 10 11  2  0
 11 12  1  0
 12 13  2  0
 13 14  1  0
 14 15  1  0
 14 16  1  0
 14 17  1  0
 13 18  1  0
  9  5  1  0
 18 10  1  0
M  END
>  <inchikey>  (1462) 
WZCRZDVKUHQHBJ-UHFFFAOYSA-N

>  <tags>  (1462) 
fragmenstein_placed,CpKRS_FrAncestor_bulkdock_iter2

>  <ref_pdb>  (1462) 
x0654b

>  <energy_score>  (1462) 
-17.536978

>  <distance_score>  (1462) 
0.31664

>  <HIPPO Pose ID>  (1462) 
60737

>  <ref_mols>  (1462) 
x0787b

>  <smiles>  (1462) 
O=C(NCc1ccns1)c1ccc(C(F)(F)F)[nH]1

>  <HIPPO Compound ID>  (1462) 
253338

>  <alias>  (1462) 
WZCRZDVKUHQHBJ-UHFFFAOYSA-N-P64

>  <subsites>  (1462) 


>  <placement_batch>  (1462) 
CpKRS_FrAncestor_bulkdock_iter2

>  <name>  (1462) 
WZCRZDVKUHQHBJ-UHFFFAOYSA-N-P64

$$$$
XAMKJCZJIOLKBV-UHFFFAOYSA-N-P64
     RDKit          3D

 15 16  0  0  0  0  0  0  0  0999 V2000
    5.4917  -14.2604   24.3510 O   0  0  0  0  0  0  0  0  0  0  0  0
    4.5802  -13.5419   24.4278 C   0  0  0  0  0  0  0  0  0  0  0  0
    4.2275  -12.2926   23.6111 N   0  0  0  0  0  0  0  0  0  0  0  0
    4.8718  -11.7142   22.4636 C   0  0  0  0  0  0  0  0  0  0  0  0
    5.1630  -10.2774   22.7201 C   0  0  0  0  0  0  0  0  0  0  0  0
    5.6261   -9.6319   23.8490 C   0  0  0  0  0  0  0  0  0  0  0  0
    5.7481   -8.2333   23.6304 C   0  0  0  0  0  0  0  0  0  0  0  0
    5.3972   -7.7928   22.4263 N   0  0  0  0  0  0  0  0  0  0  0  0
    5.0227   -9.1042   21.4887 S   0  0  0  0  0  0  0  0  0  0  0  0
    3.5626  -13.8110   25.4433 C   0  0  0  0  0  0  0  0  0  0  0  0
    2.3051  -13.2786   25.7092 C   0  0  0  0  0  0  0  0  0  0  0  0
    1.7554  -13.9615   26.8284 C   0  0  0  0  0  0  0  0  0  0  0  0
    2.6843  -14.8890   27.2052 C   0  0  0  0  0  0  0  0  0  0  0  0
    2.6883  -16.0475   28.4447 Cl  0  0  0  0  0  0  0  0  0  0  0  0
    3.7686  -14.8005   26.3929 N   0  0  0  0  0  0  0  0  0  0  0  0
  1  2  2  0
  2  3  1  0
  3  4  1  0
  4  5  1  0
  5  6  2  0
  6  7  1  0
  7  8  2  0
  8  9  1  0
  2 10  1  0
 10 11  2  0
 11 12  1  0
 12 13  2  0
 13 14  1  0
 13 15  1  0
  9  5  1  0
 15 10  1  0
M  END
>  <inchikey>  (1463) 
XAMKJCZJIOLKBV-UHFFFAOYSA-N

>  <tags>  (1463) 
fragmenstein_placed,CpKRS_FrAncestor_bulkdock_iter2

>  <ref_pdb>  (1463) 
x0654b

>  <energy_score>  (1463) 
-4.890861

>  <distance_score>  (1463) 
0.320209

>  <HIPPO Pose ID>  (1463) 
60739

>  <ref_mols>  (1463) 
x0787b

>  <smiles>  (1463) 
O=C(NCc1ccns1)c1ccc(Cl)[nH]1

>  <HIPPO Compound ID>  (1463) 
453053

>  <alias>  (1463) 
XAMKJCZJIOLKBV-UHFFFAOYSA-N-P64

>  <subsites>  (1463) 


>  <placement_batch>  (1463) 
CpKRS_FrAncestor_bulkdock_iter2

>  <name>  (1463) 
XAMKJCZJIOLKBV-UHFFFAOYSA-N-P64

$$$$
QGHINXVMXQSDRM-UHFFFAOYSA-N-P64
     RDKit          3D

 16 17  0  0  0  0  0  0  0  0999 V2000
    5.6464  -14.0721   24.5271 O   0  0  0  0  0  0  0  0  0  0  0  0
    4.6519  -13.4718   24.4753 C   0  0  0  0  0  0  0  0  0  0  0  0
    4.2297  -12.3257   23.5479 N   0  0  0  0  0  0  0  0  0  0  0  0
    4.9054  -11.7363   22.4237 C   0  0  0  0  0  0  0  0  0  0  0  0
    5.1667  -10.2971   22.6970 C   0  0  0  0  0  0  0  0  0  0  0  0
    5.5931   -9.6551   23.8423 C   0  0  0  0  0  0  0  0  0  0  0  0
    5.7073   -8.2538   23.6365 C   0  0  0  0  0  0  0  0  0  0  0  0
    5.3822   -7.8079   22.4271 N   0  0  0  0  0  0  0  0  0  0  0  0
    5.0396   -9.1158   21.4725 S   0  0  0  0  0  0  0  0  0  0  0  0
    3.5809  -13.8261   25.4026 C   0  0  0  0  0  0  0  0  0  0  0  0
    2.2419  -13.4674   25.5060 C   0  0  0  0  0  0  0  0  0  0  0  0
    1.6701  -14.1913   26.5838 C   0  0  0  0  0  0  0  0  0  0  0  0
    0.0377  -14.1147   27.0319 Cl  0  0  0  0  0  0  0  0  0  0  0  0
    2.6714  -14.9438   27.1282 C   0  0  0  0  0  0  0  0  0  0  0  0
    2.7141  -16.0414   28.4236 Cl  0  0  0  0  0  0  0  0  0  0  0  0
    3.8190  -14.7239   26.4338 N   0  0  0  0  0  0  0  0  0  0  0  0
  1  2  2  0
  2  3  1  0
  3  4  1  0
  4  5  1  0
  5  6  2  0
  6  7  1  0
  7  8  2  0
  8  9  1  0
  2 10  1  0
 10 11  2  0
 11 12  1  0
 12 13  1  0
 12 14  2  0
 14 15  1  0
 14 16  1  0
  9  5  1  0
 16 10  1  0
M  END
>  <inchikey>  (1464) 
QGHINXVMXQSDRM-UHFFFAOYSA-N

>  <tags>  (1464) 
fragmenstein_placed,CpKRS_FrAncestor_bulkdock_iter2

>  <ref_pdb>  (1464) 
x0654b

>  <energy_score>  (1464) 
-16.724877

>  <distance_score>  (1464) 
0.347776

>  <HIPPO Pose ID>  (1464) 
60741

>  <ref_mols>  (1464) 
x0787b

>  <smiles>  (1464) 
O=C(NCc1ccns1)c1cc(Cl)c(Cl)[nH]1

>  <HIPPO Compound ID>  (1464) 
453054

>  <alias>  (1464) 
QGHINXVMXQSDRM-UHFFFAOYSA-N-P64

>  <subsites>  (1464) 


>  <placement_batch>  (1464) 
CpKRS_FrAncestor_bulkdock_iter2

>  <name>  (1464) 
QGHINXVMXQSDRM-UHFFFAOYSA-N-P64

$$$$
RKFWLCOUTLYWOV-UHFFFAOYSA-N-P64
     RDKit          3D

 15 16  0  0  0  0  0  0  0  0999 V2000
    5.6272  -14.1328   24.5921 O   0  0  0  0  0  0  0  0  0  0  0  0
    4.6252  -13.5530   24.4795 C   0  0  0  0  0  0  0  0  0  0  0  0
    4.1786  -12.5367   23.4219 N   0  0  0  0  0  0  0  0  0  0  0  0
    4.9004  -11.9473   22.3344 C   0  0  0  0  0  0  0  0  0  0  0  0
    5.0660  -10.4732   22.4798 C   0  0  0  0  0  0  0  0  0  0  0  0
    5.0824   -9.5063   21.4912 C   0  0  0  0  0  0  0  0  0  0  0  0
    5.3256   -8.2220   22.0430 C   0  0  0  0  0  0  0  0  0  0  0  0
    5.4569   -8.1526   23.3601 N   0  0  0  0  0  0  0  0  0  0  0  0
    5.3844   -9.6927   23.9657 S   0  0  0  0  0  0  0  0  0  0  0  0
    3.5444  -13.8415   25.4171 C   0  0  0  0  0  0  0  0  0  0  0  0
    2.1958  -13.5200   25.4487 C   0  0  0  0  0  0  0  0  0  0  0  0
    1.6208  -14.1599   26.5716 C   0  0  0  0  0  0  0  0  0  0  0  0
   -0.0240  -14.1020   26.9757 Cl  0  0  0  0  0  0  0  0  0  0  0  0
    2.6175  -14.8380   27.2256 C   0  0  0  0  0  0  0  0  0  0  0  0
    3.7785  -14.6296   26.5308 N   0  0  0  0  0  0  0  0  0  0  0  0
  1  2  2  0
  2  3  1  0
  3  4  1  0
  4  5  1  0
  5  6  2  0
  6  7  1  0
  7  8  2  0
  8  9  1  0
  2 10  1  0
 10 11  2  0
 11 12  1  0
 12 13  1  0
 12 14  2  0
 14 15  1  0
  9  5  1  0
 15 10  1  0
M  END
>  <inchikey>  (1465) 
RKFWLCOUTLYWOV-UHFFFAOYSA-N

>  <tags>  (1465) 
fragmenstein_placed,CpKRS_FrAncestor_bulkdock_iter2

>  <ref_pdb>  (1465) 
x0654b

>  <energy_score>  (1465) 
-9.424416

>  <distance_score>  (1465) 
0.493139

>  <HIPPO Pose ID>  (1465) 
60743

>  <ref_mols>  (1465) 
x0787b

>  <smiles>  (1465) 
O=C(NCc1ccns1)c1cc(Cl)c[nH]1

>  <HIPPO Compound ID>  (1465) 
453055

>  <alias>  (1465) 
RKFWLCOUTLYWOV-UHFFFAOYSA-N-P64

>  <subsites>  (1465) 


>  <placement_batch>  (1465) 
CpKRS_FrAncestor_bulkdock_iter2

>  <name>  (1465) 
RKFWLCOUTLYWOV-UHFFFAOYSA-N-P64

$$$$
CYURHXCQSLEWJR-UHFFFAOYSA-N-P64
     RDKit          3D

 15 16  0  0  0  0  0  0  0  0999 V2000
    3.8346  -12.0148   21.6506 O   0  0  0  0  0  0  0  0  0  0  0  0
    4.4450  -11.7450   22.6016 C   0  0  0  0  0  0  0  0  0  0  0  0
    4.8796  -12.6177   23.7836 N   0  0  0  0  0  0  0  0  0  0  0  0
    4.5757  -13.9866   24.0943 C   0  0  0  0  0  0  0  0  0  0  0  0
    3.6286  -14.0421   25.2392 C   0  0  0  0  0  0  0  0  0  0  0  0
    2.4682  -13.3340   25.4895 C   0  0  0  0  0  0  0  0  0  0  0  0
    1.8800  -13.7661   26.7097 C   0  0  0  0  0  0  0  0  0  0  0  0
    2.4979  -14.7371   27.3737 N   0  0  0  0  0  0  0  0  0  0  0  0
    3.8606  -15.1600   26.5197 S   0  0  0  0  0  0  0  0  0  0  0  0
    4.9411  -10.3625   22.7465 C   0  0  0  0  0  0  0  0  0  0  0  0
    5.0392   -9.4522   21.7004 C   0  0  0  0  0  0  0  0  0  0  0  0
    5.5225   -8.2653   22.1798 N   0  0  0  0  0  0  0  0  0  0  0  0
    5.7291   -8.3863   23.5175 C   0  0  0  0  0  0  0  0  0  0  0  0
    6.3751   -7.0443   24.6817 Br  0  0  0  0  0  0  0  0  0  0  0  0
    5.3937   -9.6592   23.8941 C   0  0  0  0  0  0  0  0  0  0  0  0
  1  2  2  0
  2  3  1  0
  3  4  1  0
  4  5  1  0
  5  6  2  0
  6  7  1  0
  7  8  2  0
  8  9  1  0
  2 10  1  0
 10 11  2  0
 11 12  1  0
 12 13  1  0
 13 14  1  0
 13 15  2  0
  9  5  1  0
 15 10  1  0
M  END
>  <inchikey>  (1466) 
CYURHXCQSLEWJR-UHFFFAOYSA-N

>  <tags>  (1466) 
fragmenstein_placed,CpKRS_FrAncestor_bulkdock_iter2

>  <ref_pdb>  (1466) 
x0654b

>  <energy_score>  (1466) 
-15.80928

>  <distance_score>  (1466) 
0.5043

>  <HIPPO Pose ID>  (1466) 
60745

>  <ref_mols>  (1466) 
x0787b

>  <smiles>  (1466) 
O=C(NCc1ccns1)c1c[nH]c(Br)c1

>  <HIPPO Compound ID>  (1466) 
453056

>  <alias>  (1466) 
CYURHXCQSLEWJR-UHFFFAOYSA-N-P64

>  <subsites>  (1466) 


>  <placement_batch>  (1466) 
CpKRS_FrAncestor_bulkdock_iter2

>  <name>  (1466) 
CYURHXCQSLEWJR-UHFFFAOYSA-N-P64

$$$$
YROMEKGFVNKNON-UHFFFAOYSA-N-P64
     RDKit          3D

 15 16  0  0  0  0  0  0  0  0999 V2000
    5.5060  -14.3975   23.9202 O   0  0  0  0  0  0  0  0  0  0  0  0
    4.7039  -13.6007   24.1971 C   0  0  0  0  0  0  0  0  0  0  0  0
    4.3914  -12.2353   23.5569 N   0  0  0  0  0  0  0  0  0  0  0  0
    4.9359  -11.6082   22.3867 C   0  0  0  0  0  0  0  0  0  0  0  0
    5.1375  -10.1538   22.6116 C   0  0  0  0  0  0  0  0  0  0  0  0
    5.5908   -9.4917   23.7864 C   0  0  0  0  0  0  0  0  0  0  0  0
    5.6492   -8.1498   23.5000 C   0  0  0  0  0  0  0  0  0  0  0  0
    5.2669   -7.9298   22.2173 O   0  0  0  0  0  0  0  0  0  0  0  0
    4.9921   -9.1452   21.6798 C   0  0  0  0  0  0  0  0  0  0  0  0
    3.7667  -13.8867   25.3084 C   0  0  0  0  0  0  0  0  0  0  0  0
    2.5687  -13.2996   25.6960 C   0  0  0  0  0  0  0  0  0  0  0  0
    1.9821  -13.9347   26.8367 C   0  0  0  0  0  0  0  0  0  0  0  0
    2.7486  -14.9823   27.2693 C   0  0  0  0  0  0  0  0  0  0  0  0
    2.4143  -16.0161   28.5990 Cl  0  0  0  0  0  0  0  0  0  0  0  0
    4.1416  -15.2193   26.3535 S   0  0  0  0  0  0  0  0  0  0  0  0
  1  2  2  0
  2  3  1  0
  3  4  1  0
  4  5  1  0
  5  6  1  0
  6  7  2  0
  7  8  1  0
  8  9  1  0
  2 10  1  0
 10 11  2  0
 11 12  1  0
 12 13  2  0
 13 14  1  0
 13 15  1  0
  9  5  2  0
 15 10  1  0
M  END
>  <inchikey>  (1467) 
YROMEKGFVNKNON-UHFFFAOYSA-N

>  <tags>  (1467) 
fragmenstein_placed,CpKRS_FrAncestor_bulkdock_iter2

>  <ref_pdb>  (1467) 
x0654b

>  <energy_score>  (1467) 
-12.265244

>  <distance_score>  (1467) 
0.398895

>  <HIPPO Pose ID>  (1467) 
60749

>  <ref_mols>  (1467) 
x0787b

>  <smiles>  (1467) 
O=C(NCc1ccoc1)c1ccc(Cl)s1

>  <HIPPO Compound ID>  (1467) 
453058

>  <alias>  (1467) 
YROMEKGFVNKNON-UHFFFAOYSA-N-P64

>  <subsites>  (1467) 


>  <placement_batch>  (1467) 
CpKRS_FrAncestor_bulkdock_iter2

>  <name>  (1467) 
YROMEKGFVNKNON-UHFFFAOYSA-N-P64

$$$$
ZGHGLVUHKOMKCQ-UHFFFAOYSA-N-P64
     RDKit          3D

 15 16  0  0  0  0  0  0  0  0999 V2000
    5.5744  -14.3713   23.9875 O   0  0  0  0  0  0  0  0  0  0  0  0
    4.6991  -13.6258   24.1716 C   0  0  0  0  0  0  0  0  0  0  0  0
    4.2949  -12.3520   23.4047 N   0  0  0  0  0  0  0  0  0  0  0  0
    4.9371  -11.6787   22.3115 C   0  0  0  0  0  0  0  0  0  0  0  0
    5.1189  -10.2307   22.5885 C   0  0  0  0  0  0  0  0  0  0  0  0
    5.5410   -9.6021   23.7912 C   0  0  0  0  0  0  0  0  0  0  0  0
    5.6038   -8.2519   23.5455 C   0  0  0  0  0  0  0  0  0  0  0  0
    5.2485   -7.9948   22.2618 O   0  0  0  0  0  0  0  0  0  0  0  0
    4.9883   -9.1947   21.6841 C   0  0  0  0  0  0  0  0  0  0  0  0
    3.7143  -13.9259   25.2327 C   0  0  0  0  0  0  0  0  0  0  0  0
    2.4038  -13.5097   25.4093 C   0  0  0  0  0  0  0  0  0  0  0  0
    1.7740  -14.1368   26.5235 C   0  0  0  0  0  0  0  0  0  0  0  0
    0.1343  -13.8710   26.9219 Cl  0  0  0  0  0  0  0  0  0  0  0  0
    2.6172  -14.9867   27.1942 C   0  0  0  0  0  0  0  0  0  0  0  0
    4.1563  -15.0574   26.4616 S   0  0  0  0  0  0  0  0  0  0  0  0
  1  2  2  0
  2  3  1  0
  3  4  1  0
  4  5  1  0
  5  6  1  0
  6  7  2  0
  7  8  1  0
  8  9  1  0
  2 10  1  0
 10 11  2  0
 11 12  1  0
 12 13  1  0
 12 14  2  0
 14 15  1  0
  9  5  2  0
 15 10  1  0
M  END
>  <inchikey>  (1468) 
ZGHGLVUHKOMKCQ-UHFFFAOYSA-N

>  <tags>  (1468) 
fragmenstein_placed,CpKRS_FrAncestor_bulkdock_iter2

>  <ref_pdb>  (1468) 
x0654b

>  <energy_score>  (1468) 
-19.536787

>  <distance_score>  (1468) 
0.438259

>  <HIPPO Pose ID>  (1468) 
60751

>  <ref_mols>  (1468) 
x0787b

>  <smiles>  (1468) 
O=C(NCc1ccoc1)c1cc(Cl)cs1

>  <HIPPO Compound ID>  (1468) 
453059

>  <alias>  (1468) 
ZGHGLVUHKOMKCQ-UHFFFAOYSA-N-P64

>  <subsites>  (1468) 


>  <placement_batch>  (1468) 
CpKRS_FrAncestor_bulkdock_iter2

>  <name>  (1468) 
ZGHGLVUHKOMKCQ-UHFFFAOYSA-N-P64

$$$$
VXNVOXMMYJRGNP-UHFFFAOYSA-N-P15
     RDKit          3D

 19 20  0  0  0  0  0  0  0  0999 V2000
    2.6289  -26.4495   12.8348 O   0  0  0  0  0  0  0  0  0  0  0  0
    2.2271  -25.5380   13.4384 C   0  0  0  0  0  0  0  0  0  0  0  0
    1.9979  -25.3653   14.9527 N   0  0  0  0  0  0  0  0  0  0  0  0
    2.1242  -26.3016   16.0217 C   0  0  0  0  0  0  0  0  0  0  0  0
    2.7803  -25.6979   17.2071 C   0  0  0  0  0  0  0  0  0  0  0  0
    2.6168  -26.1390   18.5552 C   0  0  0  0  0  0  0  0  0  0  0  0
    3.4469  -25.3676   19.3306 C   0  0  0  0  0  0  0  0  0  0  0  0
    4.1142  -24.4747   18.5590 O   0  0  0  0  0  0  0  0  0  0  0  0
    3.6990  -24.6686   17.2793 C   0  0  0  0  0  0  0  0  0  0  0  0
    1.7491  -24.3500   12.6939 C   0  0  0  0  0  0  0  0  0  0  0  0
    2.3348  -23.9308   11.5111 C   0  0  0  0  0  0  0  0  0  0  0  0
    1.9245  -22.8352   10.8141 N   0  0  0  0  0  0  0  0  0  0  0  0
    0.8355  -22.1732   11.3037 C   0  0  0  0  0  0  0  0  0  0  0  0
    0.1439  -22.5636   12.4450 C   0  0  0  0  0  0  0  0  0  0  0  0
   -1.0956  -21.9037   12.9560 C   0  0  0  0  0  0  0  0  0  0  0  0
   -2.2130  -22.3357   12.3076 F   0  0  0  0  0  0  0  0  0  0  0  0
   -1.0843  -20.5522   12.8528 F   0  0  0  0  0  0  0  0  0  0  0  0
   -1.3341  -22.1562   14.2753 F   0  0  0  0  0  0  0  0  0  0  0  0
    0.6120  -23.6814   13.1278 C   0  0  0  0  0  0  0  0  0  0  0  0
  1  2  2  0
  2  3  1  0
  3  4  1  0
  4  5  1  0
  5  6  1  0
  6  7  2  0
  7  8  1  0
  8  9  1  0
  2 10  1  0
 10 11  2  0
 11 12  1  0
 12 13  2  0
 13 14  1  0
 14 15  1  0
 15 16  1  0
 15 17  1  0
 15 18  1  0
 14 19  2  0
  9  5  2  0
 19 10  1  0
M  END
>  <inchikey>  (1469) 
VXNVOXMMYJRGNP-UHFFFAOYSA-N

>  <tags>  (1469) 
fragmenstein_placed,CpKRS_FrAncestor_bulkdock_iter2

>  <ref_pdb>  (1469) 
x0654b

>  <energy_score>  (1469) 
-0.345473

>  <distance_score>  (1469) 
0.537571

>  <HIPPO Pose ID>  (1469) 
60755

>  <ref_mols>  (1469) 
x0426b

>  <smiles>  (1469) 
O=C(NCc1ccoc1)c1cncc(C(F)(F)F)c1

>  <HIPPO Compound ID>  (1469) 
439823

>  <alias>  (1469) 
VXNVOXMMYJRGNP-UHFFFAOYSA-N-P15

>  <subsites>  (1469) 


>  <placement_batch>  (1469) 
CpKRS_FrAncestor_bulkdock_iter2

>  <name>  (1469) 
VXNVOXMMYJRGNP-UHFFFAOYSA-N-P15

$$$$
PQEFAMDHICTUMB-UHFFFAOYSA-N-P16
     RDKit          3D

 17 18  0  0  0  0  0  0  0  0999 V2000
    5.8964  -13.6236   25.0868 O   0  0  0  0  0  0  0  0  0  0  0  0
    4.7767  -13.5267   24.7849 C   0  0  0  0  0  0  0  0  0  0  0  0
    4.1375  -13.0265   23.4830 N   0  0  0  0  0  0  0  0  0  0  0  0
    4.7345  -12.4514   22.3123 C   0  0  0  0  0  0  0  0  0  0  0  0
    4.9215  -10.9839   22.4626 C   0  0  0  0  0  0  0  0  0  0  0  0
    5.1689  -10.2238   23.6383 C   0  0  0  0  0  0  0  0  0  0  0  0
    5.3176   -8.9144   23.2509 C   0  0  0  0  0  0  0  0  0  0  0  0
    5.1650   -8.8037   21.9093 O   0  0  0  0  0  0  0  0  0  0  0  0
    4.9539  -10.0572   21.4401 C   0  0  0  0  0  0  0  0  0  0  0  0
    3.7767  -14.0090   25.7859 C   0  0  0  0  0  0  0  0  0  0  0  0
    4.2047  -15.0422   26.6231 C   0  0  0  0  0  0  0  0  0  0  0  0
    3.4616  -15.5926   27.6167 N   0  0  0  0  0  0  0  0  0  0  0  0
    2.2277  -15.0846   27.7922 C   0  0  0  0  0  0  0  0  0  0  0  0
    1.6906  -14.0770   27.0062 C   0  0  0  0  0  0  0  0  0  0  0  0
    0.0503  -13.6134   27.2787 Cl  0  0  0  0  0  0  0  0  0  0  0  0
    2.4899  -13.5041   26.0064 C   0  0  0  0  0  0  0  0  0  0  0  0
    1.8749  -12.1292   25.1356 Cl  0  0  0  0  0  0  0  0  0  0  0  0
  1  2  2  0
  2  3  1  0
  3  4  1  0
  4  5  1  0
  5  6  1  0
  6  7  2  0
  7  8  1  0
  8  9  1  0
  2 10  1  0
 10 11  2  0
 11 12  1  0
 12 13  2  0
 13 14  1  0
 14 15  1  0
 14 16  2  0
 16 17  1  0
  9  5  2  0
 16 10  1  0
M  END
>  <inchikey>  (1470) 
PQEFAMDHICTUMB-UHFFFAOYSA-N

>  <tags>  (1470) 
fragmenstein_placed,CpKRS_FrAncestor_bulkdock_iter2

>  <ref_pdb>  (1470) 
x0654b

>  <energy_score>  (1470) 
-6.752388

>  <distance_score>  (1470) 
0.496108

>  <HIPPO Pose ID>  (1470) 
60756

>  <ref_mols>  (1470) 
x0426a

>  <smiles>  (1470) 
O=C(NCc1ccoc1)c1cncc(Cl)c1Cl

>  <HIPPO Compound ID>  (1470) 
234644

>  <alias>  (1470) 
PQEFAMDHICTUMB-UHFFFAOYSA-N-P16

>  <subsites>  (1470) 


>  <placement_batch>  (1470) 
CpKRS_FrAncestor_bulkdock_iter2

>  <name>  (1470) 
PQEFAMDHICTUMB-UHFFFAOYSA-N-P16

$$$$
JMYIWRLAYKJAFW-UHFFFAOYSA-N-P15
     RDKit          3D

 17 18  0  0  0  0  0  0  0  0999 V2000
    2.6554  -26.4539   13.1089 O   0  0  0  0  0  0  0  0  0  0  0  0
    2.2327  -25.5021   13.6317 C   0  0  0  0  0  0  0  0  0  0  0  0
    1.9626  -25.2174   15.1237 N   0  0  0  0  0  0  0  0  0  0  0  0
    2.0664  -26.0736   16.2684 C   0  0  0  0  0  0  0  0  0  0  0  0
    2.9085  -25.4493   17.3203 C   0  0  0  0  0  0  0  0  0  0  0  0
    3.7941  -24.3367   17.2156 C   0  0  0  0  0  0  0  0  0  0  0  0
    4.3535  -24.1506   18.4535 C   0  0  0  0  0  0  0  0  0  0  0  0
    3.8911  -25.0813   19.3206 O   0  0  0  0  0  0  0  0  0  0  0  0
    2.9915  -25.8529   18.6446 C   0  0  0  0  0  0  0  0  0  0  0  0
    2.1274  -27.1349   19.3978 Cl  0  0  0  0  0  0  0  0  0  0  0  0
    1.7676  -24.3753   12.7818 C   0  0  0  0  0  0  0  0  0  0  0  0
    2.3819  -24.0621   11.5743 C   0  0  0  0  0  0  0  0  0  0  0  0
    2.0189  -23.0115   10.7831 N   0  0  0  0  0  0  0  0  0  0  0  0
    0.9380  -22.2929   11.2042 C   0  0  0  0  0  0  0  0  0  0  0  0
    0.2280  -22.5896   12.3609 C   0  0  0  0  0  0  0  0  0  0  0  0
   -1.1503  -21.7392   12.9053 Cl  0  0  0  0  0  0  0  0  0  0  0  0
    0.6437  -23.6467   13.1475 C   0  0  0  0  0  0  0  0  0  0  0  0
  1  2  2  0
  2  3  1  0
  3  4  1  0
  4  5  1  0
  5  6  1  0
  6  7  2  0
  7  8  1  0
  8  9  1  0
  9 10  1  0
  2 11  1  0
 11 12  2  0
 12 13  1  0
 13 14  2  0
 14 15  1  0
 15 16  1  0
 15 17  2  0
  9  5  2  0
 17 11  1  0
M  END
>  <inchikey>  (1471) 
JMYIWRLAYKJAFW-UHFFFAOYSA-N

>  <tags>  (1471) 
fragmenstein_placed,CpKRS_FrAncestor_bulkdock_iter2

>  <ref_pdb>  (1471) 
x0654b

>  <energy_score>  (1471) 
-5.39209

>  <distance_score>  (1471) 
0.603883

>  <HIPPO Pose ID>  (1471) 
60763

>  <ref_mols>  (1471) 
x0426b

>  <smiles>  (1471) 
O=C(NCc1ccoc1Cl)c1cncc(Cl)c1

>  <HIPPO Compound ID>  (1471) 
228987

>  <alias>  (1471) 
JMYIWRLAYKJAFW-UHFFFAOYSA-N-P15

>  <subsites>  (1471) 


>  <placement_batch>  (1471) 
CpKRS_FrAncestor_bulkdock_iter2

>  <name>  (1471) 
JMYIWRLAYKJAFW-UHFFFAOYSA-N-P15

$$$$
FCEYCQXUIHRGCK-UHFFFAOYSA-N-P44
     RDKit          3D

 15 16  0  0  0  0  0  0  0  0999 V2000
  -11.6758  -12.1296   45.8114 O   0  0  0  0  0  0  0  0  0  0  0  0
  -11.1067  -12.9962   46.3421 C   0  0  0  0  0  0  0  0  0  0  0  0
  -11.4287  -14.4965   46.4229 N   0  0  0  0  0  0  0  0  0  0  0  0
  -12.4709  -15.2679   45.7874 C   0  0  0  0  0  0  0  0  0  0  0  0
  -12.3115  -15.3171   44.2626 C   0  0  1  0  0  0  0  0  0  0  0  0
  -11.4616  -16.4881   43.8113 C   0  0  0  0  0  0  0  0  0  0  0  0
  -12.4482  -17.6352   43.7154 C   0  0  0  0  0  0  0  0  0  0  0  0
  -13.7546  -17.0667   43.5766 O   0  0  0  0  0  0  0  0  0  0  0  0
  -13.6290  -15.6405   43.5768 C   0  0  0  0  0  0  0  0  0  0  0  0
   -9.8904  -12.6425   47.1061 C   0  0  0  0  0  0  0  0  0  0  0  0
   -9.1106  -11.4591   46.8056 C   0  0  0  0  0  0  0  0  0  0  0  0
   -8.0576  -11.2607   47.6696 C   0  0  0  0  0  0  0  0  0  0  0  0
   -7.9988  -12.4686   48.8703 S   0  0  0  0  0  0  0  0  0  0  0  0
   -9.3493  -13.2660   48.2125 C   0  0  0  0  0  0  0  0  0  0  0  0
   -9.8760  -14.6826   49.0409 Cl  0  0  0  0  0  0  0  0  0  0  0  0
  1  2  2  0
  2  3  1  0
  3  4  1  0
  5  4  1  1
  5  6  1  0
  6  7  1  0
  7  8  1  0
  8  9  1  0
  2 10  1  0
 10 11  1  0
 11 12  2  0
 12 13  1  0
 13 14  1  0
 14 15  1  0
  9  5  1  0
 14 10  2  0
M  END
>  <inchikey>  (1472) 
FCEYCQXUIHRGCK-UHFFFAOYSA-N

>  <tags>  (1472) 
fragmenstein_placed,CpKRS_FrAncestor_bulkdock_iter2

>  <ref_pdb>  (1472) 
x0654b

>  <energy_score>  (1472) 
-23.034853

>  <distance_score>  (1472) 
0.291759

>  <HIPPO Pose ID>  (1472) 
60774

>  <ref_mols>  (1472) 
x0502b

>  <smiles>  (1472) 
O=C(NCC1CCOC1)c1ccsc1Cl

>  <HIPPO Compound ID>  (1472) 
453066

>  <alias>  (1472) 
FCEYCQXUIHRGCK-UHFFFAOYSA-N-P44

>  <subsites>  (1472) 


>  <placement_batch>  (1472) 
CpKRS_FrAncestor_bulkdock_iter2

>  <name>  (1472) 
FCEYCQXUIHRGCK-UHFFFAOYSA-N-P44

$$$$
QSENPEKSSAGOGA-UHFFFAOYSA-N-P44
     RDKit          3D

 15 16  0  0  0  0  0  0  0  0999 V2000
  -11.4446  -12.0840   45.5530 O   0  0  0  0  0  0  0  0  0  0  0  0
  -11.0395  -12.9453   46.2277 C   0  0  0  0  0  0  0  0  0  0  0  0
  -11.5598  -14.3857   46.4320 N   0  0  0  0  0  0  0  0  0  0  0  0
  -12.6315  -15.0970   45.7771 C   0  0  0  0  0  0  0  0  0  0  0  0
  -12.4028  -15.2695   44.2696 C   0  0  2  0  0  0  0  0  0  0  0  0
  -13.6601  -15.7306   43.5561 C   0  0  0  0  0  0  0  0  0  0  0  0
  -13.6372  -17.2314   43.7533 C   0  0  0  0  0  0  0  0  0  0  0  0
  -12.2617  -17.6126   43.8681 O   0  0  0  0  0  0  0  0  0  0  0  0
  -11.4646  -16.4245   43.9680 C   0  0  0  0  0  0  0  0  0  0  0  0
   -9.8881  -12.6987   47.0947 C   0  0  0  0  0  0  0  0  0  0  0  0
   -9.1623  -11.5410   46.9031 O   0  0  0  0  0  0  0  0  0  0  0  0
   -8.1644  -11.5251   47.8272 C   0  0  0  0  0  0  0  0  0  0  0  0
   -8.2260  -12.6384   48.6301 C   0  0  0  0  0  0  0  0  0  0  0  0
   -9.3230  -13.3744   48.1528 C   0  0  0  0  0  0  0  0  0  0  0  0
   -9.7459  -14.5365   48.6633 F   0  0  0  0  0  0  0  0  0  0  0  0
  1  2  2  0
  2  3  1  0
  3  4  1  0
  5  4  1  1
  5  6  1  0
  6  7  1  0
  7  8  1  0
  8  9  1  0
  2 10  1  0
 10 11  1  0
 11 12  1  0
 12 13  2  0
 13 14  1  0
 14 15  1  0
  9  5  1  0
 14 10  2  0
M  END
>  <inchikey>  (1473) 
QSENPEKSSAGOGA-UHFFFAOYSA-N

>  <tags>  (1473) 
fragmenstein_placed,CpKRS_FrAncestor_bulkdock_iter2

>  <ref_pdb>  (1473) 
x0654b

>  <energy_score>  (1473) 
-8.699115

>  <distance_score>  (1473) 
0.312236

>  <HIPPO Pose ID>  (1473) 
60777

>  <ref_mols>  (1473) 
x0502b

>  <smiles>  (1473) 
O=C(NCC1CCOC1)c1occc1F

>  <HIPPO Compound ID>  (1473) 
453067

>  <alias>  (1473) 
QSENPEKSSAGOGA-UHFFFAOYSA-N-P44

>  <subsites>  (1473) 


>  <placement_batch>  (1473) 
CpKRS_FrAncestor_bulkdock_iter2

>  <name>  (1473) 
QSENPEKSSAGOGA-UHFFFAOYSA-N-P44

$$$$
JYQVCTZIEZLQKV-UHFFFAOYSA-N-P16
     RDKit          3D

 15 16  0  0  0  0  0  0  0  0999 V2000
    5.8828  -13.8392   25.1425 O   0  0  0  0  0  0  0  0  0  0  0  0
    4.7462  -13.7510   24.9062 C   0  0  0  0  0  0  0  0  0  0  0  0
    4.0251  -13.1392   23.6942 N   0  0  0  0  0  0  0  0  0  0  0  0
    4.5498  -12.5927   22.4755 C   0  0  0  0  0  0  0  0  0  0  0  0
    4.7840  -11.1142   22.5891 C   0  0  0  0  0  0  0  0  0  0  0  0
    5.0014  -10.2536   21.4635 C   0  0  0  0  0  0  0  0  0  0  0  0
    5.2456   -8.9452   21.8111 C   0  0  0  0  0  0  0  0  0  0  0  0
    5.1999   -8.7240   23.4985 S   0  0  0  0  0  0  0  0  0  0  0  0
    4.8817  -10.3803   23.7546 C   0  0  0  0  0  0  0  0  0  0  0  0
    3.7965  -14.2481   25.9465 C   0  0  0  0  0  0  0  0  0  0  0  0
    2.5575  -13.6654   26.2301 C   0  0  0  0  0  0  0  0  0  0  0  0
    1.8013  -14.1474   27.3011 C   0  0  0  0  0  0  0  0  0  0  0  0
    2.3100  -15.1954   28.0539 C   0  0  0  0  0  0  0  0  0  0  0  0
    3.4876  -15.7967   27.7930 N   0  0  0  0  0  0  0  0  0  0  0  0
    4.2129  -15.2963   26.7603 C   0  0  0  0  0  0  0  0  0  0  0  0
  1  2  2  0
  2  3  1  0
  3  4  1  0
  4  5  1  0
  5  6  1  0
  6  7  2  0
  7  8  1  0
  8  9  1  0
  2 10  1  0
 10 11  2  0
 11 12  1  0
 12 13  2  0
 13 14  1  0
 14 15  2  0
  9  5  2  0
 15 10  1  0
M  END
>  <inchikey>  (1474) 
JYQVCTZIEZLQKV-UHFFFAOYSA-N

>  <tags>  (1474) 
fragmenstein_placed,CpKRS_FrAncestor_bulkdock_iter2

>  <ref_pdb>  (1474) 
x0654b

>  <energy_score>  (1474) 
-1.377885

>  <distance_score>  (1474) 
0.43772

>  <HIPPO Pose ID>  (1474) 
60785

>  <ref_mols>  (1474) 
x0426a

>  <smiles>  (1474) 
O=C(NCc1ccsc1)c1cccnc1

>  <HIPPO Compound ID>  (1474) 
393385

>  <alias>  (1474) 
JYQVCTZIEZLQKV-UHFFFAOYSA-N-P16

>  <subsites>  (1474) 


>  <placement_batch>  (1474) 
CpKRS_FrAncestor_bulkdock_iter2

>  <name>  (1474) 
JYQVCTZIEZLQKV-UHFFFAOYSA-N-P16

$$$$
UXTBINBKVGPZKM-UHFFFAOYSA-N-P16
     RDKit          3D

 16 17  0  0  0  0  0  0  0  0999 V2000
    5.9154  -13.6931   25.1176 O   0  0  0  0  0  0  0  0  0  0  0  0
    4.7964  -13.6698   24.7972 C   0  0  0  0  0  0  0  0  0  0  0  0
    4.1434  -13.1882   23.4903 N   0  0  0  0  0  0  0  0  0  0  0  0
    4.7176  -12.5484   22.3428 C   0  0  0  0  0  0  0  0  0  0  0  0
    4.8751  -11.0700   22.5344 C   0  0  0  0  0  0  0  0  0  0  0  0
    5.0260  -10.1454   21.4483 C   0  0  0  0  0  0  0  0  0  0  0  0
    5.2263   -8.8477   21.8571 C   0  0  0  0  0  0  0  0  0  0  0  0
    5.2008   -8.7121   23.5540 S   0  0  0  0  0  0  0  0  0  0  0  0
    4.9577  -10.3915   23.7338 C   0  0  0  0  0  0  0  0  0  0  0  0
    3.7941  -14.1512   25.7920 C   0  0  0  0  0  0  0  0  0  0  0  0
    4.1970  -15.0729   26.7562 C   0  0  0  0  0  0  0  0  0  0  0  0
    3.3962  -15.5327   27.7550 N   0  0  0  0  0  0  0  0  0  0  0  0
    2.1443  -15.0283   27.8017 C   0  0  0  0  0  0  0  0  0  0  0  0
    1.6497  -14.1231   26.8751 C   0  0  0  0  0  0  0  0  0  0  0  0
   -0.1405  -13.5415   26.9333 Br  0  0  0  0  0  0  0  0  0  0  0  0
    2.4889  -13.6608   25.8672 C   0  0  0  0  0  0  0  0  0  0  0  0
  1  2  2  0
  2  3  1  0
  3  4  1  0
  4  5  1  0
  5  6  1  0
  6  7  2  0
  7  8  1  0
  8  9  1  0
  2 10  1  0
 10 11  2  0
 11 12  1  0
 12 13  2  0
 13 14  1  0
 14 15  1  0
 14 16  2  0
  9  5  2  0
 16 10  1  0
M  END
>  <inchikey>  (1475) 
UXTBINBKVGPZKM-UHFFFAOYSA-N

>  <tags>  (1475) 
fragmenstein_placed,CpKRS_FrAncestor_bulkdock_iter2

>  <ref_pdb>  (1475) 
x0654b

>  <energy_score>  (1475) 
-6.128969

>  <distance_score>  (1475) 
0.507638

>  <HIPPO Pose ID>  (1475) 
60787

>  <ref_mols>  (1475) 
x0426a

>  <smiles>  (1475) 
O=C(NCc1ccsc1)c1cncc(Br)c1

>  <HIPPO Compound ID>  (1475) 
453069

>  <alias>  (1475) 
UXTBINBKVGPZKM-UHFFFAOYSA-N-P16

>  <subsites>  (1475) 


>  <placement_batch>  (1475) 
CpKRS_FrAncestor_bulkdock_iter2

>  <name>  (1475) 
UXTBINBKVGPZKM-UHFFFAOYSA-N-P16

$$$$
NKVFHOBGLYXZMV-UHFFFAOYSA-N-P16
     RDKit          3D

 16 17  0  0  0  0  0  0  0  0999 V2000
    5.8850  -13.7020   25.1518 O   0  0  0  0  0  0  0  0  0  0  0  0
    4.7627  -13.6862   24.8436 C   0  0  0  0  0  0  0  0  0  0  0  0
    4.0836  -13.1287   23.5821 N   0  0  0  0  0  0  0  0  0  0  0  0
    4.6499  -12.5591   22.3930 C   0  0  0  0  0  0  0  0  0  0  0  0
    4.8566  -11.0799   22.5417 C   0  0  0  0  0  0  0  0  0  0  0  0
    5.0198  -10.1834   21.4351 C   0  0  0  0  0  0  0  0  0  0  0  0
    5.2510   -8.8814   21.8134 C   0  0  0  0  0  0  0  0  0  0  0  0
    5.2498   -8.7078   23.5069 S   0  0  0  0  0  0  0  0  0  0  0  0
    4.9737  -10.3770   23.7249 C   0  0  0  0  0  0  0  0  0  0  0  0
    3.7785  -14.1919   25.8451 C   0  0  0  0  0  0  0  0  0  0  0  0
    4.2012  -15.1422   26.7726 C   0  0  0  0  0  0  0  0  0  0  0  0
    3.4286  -15.6153   27.7869 N   0  0  0  0  0  0  0  0  0  0  0  0
    2.1887  -15.0885   27.8925 C   0  0  0  0  0  0  0  0  0  0  0  0
    1.6750  -14.1504   27.0094 C   0  0  0  0  0  0  0  0  0  0  0  0
    0.0633  -13.5781   27.1637 Cl  0  0  0  0  0  0  0  0  0  0  0  0
    2.4832  -13.6833   25.9779 C   0  0  0  0  0  0  0  0  0  0  0  0
  1  2  2  0
  2  3  1  0
  3  4  1  0
  4  5  1  0
  5  6  1  0
  6  7  2  0
  7  8  1  0
  8  9  1  0
  2 10  1  0
 10 11  2  0
 11 12  1  0
 12 13  2  0
 13 14  1  0
 14 15  1  0
 14 16  2  0
  9  5  2  0
 16 10  1  0
M  END
>  <inchikey>  (1476) 
NKVFHOBGLYXZMV-UHFFFAOYSA-N

>  <tags>  (1476) 
fragmenstein_placed,CpKRS_FrAncestor_bulkdock_iter2

>  <ref_pdb>  (1476) 
x0654b

>  <energy_score>  (1476) 
-29.263049

>  <distance_score>  (1476) 
0.465516

>  <HIPPO Pose ID>  (1476) 
60789

>  <ref_mols>  (1476) 
x0426a

>  <smiles>  (1476) 
O=C(NCc1ccsc1)c1cncc(Cl)c1

>  <HIPPO Compound ID>  (1476) 
453070

>  <alias>  (1476) 
NKVFHOBGLYXZMV-UHFFFAOYSA-N-P16

>  <subsites>  (1476) 


>  <placement_batch>  (1476) 
CpKRS_FrAncestor_bulkdock_iter2

>  <name>  (1476) 
NKVFHOBGLYXZMV-UHFFFAOYSA-N-P16

$$$$
BGDWEJJAIZBYOT-UHFFFAOYSA-N-P16
     RDKit          3D

 16 17  0  0  0  0  0  0  0  0999 V2000
    5.8467  -13.8751   25.1243 O   0  0  0  0  0  0  0  0  0  0  0  0
    4.7155  -13.7386   24.8852 C   0  0  0  0  0  0  0  0  0  0  0  0
    4.0221  -13.1827   23.6304 N   0  0  0  0  0  0  0  0  0  0  0  0
    4.5742  -12.5908   22.4447 C   0  0  0  0  0  0  0  0  0  0  0  0
    4.7852  -11.1133   22.5891 C   0  0  0  0  0  0  0  0  0  0  0  0
    5.0024  -10.2330   21.4777 C   0  0  0  0  0  0  0  0  0  0  0  0
    5.2316   -8.9280   21.8470 C   0  0  0  0  0  0  0  0  0  0  0  0
    5.1679   -8.7338   23.5373 S   0  0  0  0  0  0  0  0  0  0  0  0
    4.8620  -10.3969   23.7662 C   0  0  0  0  0  0  0  0  0  0  0  0
    3.7451  -14.1820   25.9319 C   0  0  0  0  0  0  0  0  0  0  0  0
    4.1433  -15.2031   26.7953 C   0  0  0  0  0  0  0  0  0  0  0  0
    3.3931  -15.6707   27.8280 N   0  0  0  0  0  0  0  0  0  0  0  0
    2.2031  -15.0637   28.0292 C   0  0  0  0  0  0  0  0  0  0  0  0
    1.7228  -14.0472   27.2196 C   0  0  0  0  0  0  0  0  0  0  0  0
    0.5269  -13.4897   27.4604 F   0  0  0  0  0  0  0  0  0  0  0  0
    2.4979  -13.5935   26.1568 C   0  0  0  0  0  0  0  0  0  0  0  0
  1  2  2  0
  2  3  1  0
  3  4  1  0
  4  5  1  0
  5  6  1  0
  6  7  2  0
  7  8  1  0
  8  9  1  0
  2 10  1  0
 10 11  2  0
 11 12  1  0
 12 13  2  0
 13 14  1  0
 14 15  1  0
 14 16  2  0
  9  5  2  0
 16 10  1  0
M  END
>  <inchikey>  (1477) 
BGDWEJJAIZBYOT-UHFFFAOYSA-N

>  <tags>  (1477) 
fragmenstein_placed,CpKRS_FrAncestor_bulkdock_iter2

>  <ref_pdb>  (1477) 
x0654b

>  <energy_score>  (1477) 
-2.075657

>  <distance_score>  (1477) 
0.414092

>  <HIPPO Pose ID>  (1477) 
60791

>  <ref_mols>  (1477) 
x0426a

>  <smiles>  (1477) 
O=C(NCc1ccsc1)c1cncc(F)c1

>  <HIPPO Compound ID>  (1477) 
453071

>  <alias>  (1477) 
BGDWEJJAIZBYOT-UHFFFAOYSA-N-P16

>  <subsites>  (1477) 


>  <placement_batch>  (1477) 
CpKRS_FrAncestor_bulkdock_iter2

>  <name>  (1477) 
BGDWEJJAIZBYOT-UHFFFAOYSA-N-P16

$$$$
OGIIMNDCQHXRGR-UHFFFAOYSA-N-P44
     RDKit          3D

 15 16  0  0  0  0  0  0  0  0999 V2000
  -11.5596  -12.0452   45.7916 O   0  0  0  0  0  0  0  0  0  0  0  0
  -10.9638  -12.9109   46.2932 C   0  0  0  0  0  0  0  0  0  0  0  0
  -11.2269  -14.4245   46.3050 N   0  0  0  0  0  0  0  0  0  0  0  0
  -12.3331  -15.1874   45.7811 C   0  0  0  0  0  0  0  0  0  0  0  0
  -12.3246  -15.2316   44.2437 C   0  0  2  0  0  0  0  0  0  0  0  0
  -13.7234  -15.4342   43.6524 C   0  0  0  0  0  0  0  0  0  0  0  0
  -14.1237  -16.8796   43.8849 C   0  0  0  0  0  0  0  0  0  0  0  0
  -12.6064  -17.8205   43.6175 S   0  0  0  0  0  0  0  0  0  0  0  0
  -11.4897  -16.3921   43.7085 C   0  0  0  0  0  0  0  0  0  0  0  0
   -9.7602  -12.5558   47.0553 C   0  0  0  0  0  0  0  0  0  0  0  0
   -8.9518  -11.3995   46.7944 C   0  0  0  0  0  0  0  0  0  0  0  0
   -7.9578  -11.3808   47.7382 C   0  0  0  0  0  0  0  0  0  0  0  0
   -8.0965  -12.4298   48.5806 O   0  0  0  0  0  0  0  0  0  0  0  0
   -9.1885  -13.1402   48.1747 C   0  0  0  0  0  0  0  0  0  0  0  0
   -9.7858  -14.6677   49.1516 Br  0  0  0  0  0  0  0  0  0  0  0  0
  1  2  2  0
  2  3  1  0
  3  4  1  0
  5  4  1  1
  5  6  1  0
  6  7  1  0
  7  8  1  0
  8  9  1  0
  2 10  1  0
 10 11  1  0
 11 12  2  0
 12 13  1  0
 13 14  1  0
 14 15  1  0
  9  5  1  0
 14 10  2  0
M  END
>  <inchikey>  (1478) 
OGIIMNDCQHXRGR-UHFFFAOYSA-N

>  <tags>  (1478) 
fragmenstein_placed,CpKRS_FrAncestor_bulkdock_iter2

>  <ref_pdb>  (1478) 
x0654b

>  <energy_score>  (1478) 
-7.57228

>  <distance_score>  (1478) 
0.406826

>  <HIPPO Pose ID>  (1478) 
60794

>  <ref_mols>  (1478) 
x0502b

>  <smiles>  (1478) 
O=C(NCC1CCSC1)c1ccoc1Br

>  <HIPPO Compound ID>  (1478) 
394233

>  <alias>  (1478) 
OGIIMNDCQHXRGR-UHFFFAOYSA-N-P44

>  <subsites>  (1478) 


>  <placement_batch>  (1478) 
CpKRS_FrAncestor_bulkdock_iter2

>  <name>  (1478) 
OGIIMNDCQHXRGR-UHFFFAOYSA-N-P44

$$$$
JQEYKRIIWIEIJU-UHFFFAOYSA-N-P46
     RDKit          3D

 15 16  0  0  0  0  0  0  0  0999 V2000
    5.1408  -13.2798   24.9811 O   0  0  0  0  0  0  0  0  0  0  0  0
    3.9914  -13.0993   24.9544 C   0  0  0  0  0  0  0  0  0  0  0  0
    3.1384  -12.2421   24.0025 N   0  0  0  0  0  0  0  0  0  0  0  0
    3.5074  -11.5060   22.8314 C   0  0  0  0  0  0  0  0  0  0  0  0
    4.6173  -10.5045   23.1015 C   0  0  2  0  0  0  0  0  0  0  0  0
    4.2179   -9.4606   24.1408 C   0  0  0  0  0  0  0  0  0  0  0  0
    5.3471   -8.4552   24.1647 C   0  0  0  0  0  0  0  0  0  0  0  0
    5.6839   -8.1790   22.4134 S   0  0  0  0  0  0  0  0  0  0  0  0
    4.9735   -9.7328   21.8410 C   0  0  0  0  0  0  0  0  0  0  0  0
    3.1174  -13.6640   25.9931 C   0  0  0  0  0  0  0  0  0  0  0  0
    1.8353  -13.2072   26.4497 C   0  0  0  0  0  0  0  0  0  0  0  0
    1.4741  -14.0259   27.4874 C   0  0  0  0  0  0  0  0  0  0  0  0
    2.4168  -14.9678   27.6992 O   0  0  0  0  0  0  0  0  0  0  0  0
    3.4275  -14.7423   26.8092 C   0  0  0  0  0  0  0  0  0  0  0  0
    4.8495  -15.7024   26.8255 Cl  0  0  0  0  0  0  0  0  0  0  0  0
  1  2  2  0
  2  3  1  0
  3  4  1  0
  5  4  1  6
  5  6  1  0
  6  7  1  0
  7  8  1  0
  8  9  1  0
  2 10  1  0
 10 11  1  0
 11 12  2  0
 12 13  1  0
 13 14  1  0
 14 15  1  0
  9  5  1  0
 14 10  2  0
M  END
>  <inchikey>  (1479) 
JQEYKRIIWIEIJU-UHFFFAOYSA-N

>  <tags>  (1479) 
fragmenstein_placed,CpKRS_FrAncestor_bulkdock_iter2

>  <ref_pdb>  (1479) 
x0654b

>  <energy_score>  (1479) 
-9.669679

>  <distance_score>  (1479) 
0.364554

>  <HIPPO Pose ID>  (1479) 
60798

>  <ref_mols>  (1479) 
x0502c

>  <smiles>  (1479) 
O=C(NCC1CCSC1)c1ccoc1Cl

>  <HIPPO Compound ID>  (1479) 
394232

>  <alias>  (1479) 
JQEYKRIIWIEIJU-UHFFFAOYSA-N-P46

>  <subsites>  (1479) 


>  <placement_batch>  (1479) 
CpKRS_FrAncestor_bulkdock_iter2

>  <name>  (1479) 
JQEYKRIIWIEIJU-UHFFFAOYSA-N-P46

$$$$
JCRHKRLHFPYQNM-UHFFFAOYSA-N-P44
     RDKit          3D

 15 16  0  0  0  0  0  0  0  0999 V2000
  -11.4954  -12.1421   45.7018 O   0  0  0  0  0  0  0  0  0  0  0  0
  -10.9565  -12.9956   46.2829 C   0  0  0  0  0  0  0  0  0  0  0  0
  -11.2557  -14.5016   46.3445 N   0  0  0  0  0  0  0  0  0  0  0  0
  -12.3408  -15.2654   45.7788 C   0  0  0  0  0  0  0  0  0  0  0  0
  -12.2806  -15.2927   44.2420 C   0  0  1  0  0  0  0  0  0  0  0  0
  -11.5261  -16.5074   43.6973 C   0  0  0  0  0  0  0  0  0  0  0  0
  -12.4295  -17.7256   43.8027 C   0  0  0  0  0  0  0  0  0  0  0  0
  -14.1140  -17.1167   43.5658 S   0  0  0  0  0  0  0  0  0  0  0  0
  -13.6678  -15.3624   43.6052 C   0  0  0  0  0  0  0  0  0  0  0  0
   -9.7827  -12.6262   47.1021 C   0  0  0  0  0  0  0  0  0  0  0  0
   -8.9991  -11.4385   46.8320 C   0  0  0  0  0  0  0  0  0  0  0  0
   -7.9822  -11.2344   47.7368 C   0  0  0  0  0  0  0  0  0  0  0  0
   -7.9631  -12.4427   48.9387 S   0  0  0  0  0  0  0  0  0  0  0  0
   -9.2879  -13.2423   48.2338 C   0  0  0  0  0  0  0  0  0  0  0  0
   -9.8481  -14.6556   49.0462 Cl  0  0  0  0  0  0  0  0  0  0  0  0
  1  2  2  0
  2  3  1  0
  3  4  1  0
  5  4  1  1
  5  6  1  0
  6  7  1  0
  7  8  1  0
  8  9  1  0
  2 10  1  0
 10 11  1  0
 11 12  2  0
 12 13  1  0
 13 14  1  0
 14 15  1  0
  9  5  1  0
 14 10  2  0
M  END
>  <inchikey>  (1480) 
JCRHKRLHFPYQNM-UHFFFAOYSA-N

>  <tags>  (1480) 
fragmenstein_placed,CpKRS_FrAncestor_bulkdock_iter2

>  <ref_pdb>  (1480) 
x0654b

>  <energy_score>  (1480) 
-14.068184

>  <distance_score>  (1480) 
0.376098

>  <HIPPO Pose ID>  (1480) 
60800

>  <ref_mols>  (1480) 
x0502b

>  <smiles>  (1480) 
O=C(NCC1CCSC1)c1ccsc1Cl

>  <HIPPO Compound ID>  (1480) 
394244

>  <alias>  (1480) 
JCRHKRLHFPYQNM-UHFFFAOYSA-N-P44

>  <subsites>  (1480) 


>  <placement_batch>  (1480) 
CpKRS_FrAncestor_bulkdock_iter2

>  <name>  (1480) 
JCRHKRLHFPYQNM-UHFFFAOYSA-N-P44

$$$$
SWFRNNBOEAEGSK-UHFFFAOYSA-N-P46
     RDKit          3D

 15 16  0  0  0  0  0  0  0  0999 V2000
    5.4786  -13.5150   25.3140 O   0  0  0  0  0  0  0  0  0  0  0  0
    4.3768  -13.2904   25.0146 C   0  0  0  0  0  0  0  0  0  0  0  0
    3.8086  -12.4910   23.8271 N   0  0  0  0  0  0  0  0  0  0  0  0
    4.4707  -11.8842   22.7138 C   0  0  0  0  0  0  0  0  0  0  0  0
    4.4204  -10.3698   22.8243 C   0  0  1  0  0  0  0  0  0  0  0  0
    5.1118   -9.8404   24.0771 C   0  0  0  0  0  0  0  0  0  0  0  0
    5.1851   -8.3353   23.9385 C   0  0  0  0  0  0  0  0  0  0  0  0
    5.4294   -8.0367   22.1718 S   0  0  0  0  0  0  0  0  0  0  0  0
    5.1347   -9.7277   21.6527 C   0  0  0  0  0  0  0  0  0  0  0  0
    3.2741  -13.6968   25.8657 C   0  0  0  0  0  0  0  0  0  0  0  0
    3.1447  -14.7967   26.6999 C   0  0  0  0  0  0  0  0  0  0  0  0
    1.9001  -14.8361   27.2990 N   0  0  0  0  0  0  0  0  0  0  0  0
    1.3053  -13.7710   26.8424 C   0  0  0  0  0  0  0  0  0  0  0  0
   -0.3215  -13.3210   26.9637 Cl  0  0  0  0  0  0  0  0  0  0  0  0
    2.1073  -13.0001   26.0776 N   0  0  0  0  0  0  0  0  0  0  0  0
  1  2  2  0
  2  3  1  0
  3  4  1  0
  5  4  1  6
  5  6  1  0
  6  7  1  0
  7  8  1  0
  8  9  1  0
  2 10  1  0
 10 11  2  0
 11 12  1  0
 12 13  2  0
 13 14  1  0
 13 15  1  0
  9  5  1  0
 15 10  1  0
M  END
>  <inchikey>  (1481) 
SWFRNNBOEAEGSK-UHFFFAOYSA-N

>  <tags>  (1481) 
fragmenstein_placed,CpKRS_FrAncestor_bulkdock_iter2

>  <ref_pdb>  (1481) 
x0654b

>  <energy_score>  (1481) 
-12.574586

>  <distance_score>  (1481) 
0.482353

>  <HIPPO Pose ID>  (1481) 
60804

>  <ref_mols>  (1481) 
x0502c

>  <smiles>  (1481) 
O=C(NCC1CCSC1)c1cnc(Cl)[nH]1

>  <HIPPO Compound ID>  (1481) 
453072

>  <alias>  (1481) 
SWFRNNBOEAEGSK-UHFFFAOYSA-N-P46

>  <subsites>  (1481) 


>  <placement_batch>  (1481) 
CpKRS_FrAncestor_bulkdock_iter2

>  <name>  (1481) 
SWFRNNBOEAEGSK-UHFFFAOYSA-N-P46

$$$$
LVQUDHVEFFDRIO-UHFFFAOYSA-N-P45
     RDKit          3D

 14 15  0  0  0  0  0  0  0  0999 V2000
    5.4732  -13.6876   25.2884 O   0  0  0  0  0  0  0  0  0  0  0  0
    4.3710  -13.4435   25.0065 C   0  0  0  0  0  0  0  0  0  0  0  0
    3.7965  -12.6695   23.8064 N   0  0  0  0  0  0  0  0  0  0  0  0
    4.4610  -11.9536   22.7535 C   0  0  0  0  0  0  0  0  0  0  0  0
    4.3307  -10.4425   22.9194 C   0  0  2  0  0  0  0  0  0  0  0  0
    5.0620   -9.6714   21.8216 C   0  0  0  0  0  0  0  0  0  0  0  0
    4.9709   -8.2071   22.2039 C   0  0  0  0  0  0  0  0  0  0  0  0
    5.2257   -8.1750   23.9922 S   0  0  0  0  0  0  0  0  0  0  0  0
    4.9380   -9.9494   24.2274 C   0  0  0  0  0  0  0  0  0  0  0  0
    3.2796  -13.8027   25.8917 C   0  0  0  0  0  0  0  0  0  0  0  0
    3.0969  -14.9335   26.6652 C   0  0  0  0  0  0  0  0  0  0  0  0
    1.9468  -14.8462   27.4187 N   0  0  0  0  0  0  0  0  0  0  0  0
    1.4497  -13.6695   27.1374 C   0  0  0  0  0  0  0  0  0  0  0  0
    2.2133  -13.0018   26.2279 N   0  0  0  0  0  0  0  0  0  0  0  0
  1  2  2  0
  2  3  1  0
  3  4  1  0
  5  4  1  6
  5  6  1  0
  6  7  1  0
  7  8  1  0
  8  9  1  0
  2 10  1  0
 10 11  2  0
 11 12  1  0
 12 13  2  0
 13 14  1  0
  9  5  1  0
 14 10  1  0
M  END
>  <inchikey>  (1482) 
LVQUDHVEFFDRIO-UHFFFAOYSA-N

>  <tags>  (1482) 
fragmenstein_placed,CpKRS_FrAncestor_bulkdock_iter2

>  <ref_pdb>  (1482) 
x0654b

>  <energy_score>  (1482) 
-4.127732

>  <distance_score>  (1482) 
0.510241

>  <HIPPO Pose ID>  (1482) 
60805

>  <ref_mols>  (1482) 
x0502a

>  <smiles>  (1482) 
O=C(NCC1CCSC1)c1cnc[nH]1

>  <HIPPO Compound ID>  (1482) 
282377

>  <alias>  (1482) 
LVQUDHVEFFDRIO-UHFFFAOYSA-N-P45

>  <subsites>  (1482) 


>  <placement_batch>  (1482) 
CpKRS_FrAncestor_bulkdock_iter2

>  <name>  (1482) 
LVQUDHVEFFDRIO-UHFFFAOYSA-N-P45

$$$$
JQPRAWIDMAIOAR-UHFFFAOYSA-N-P46
     RDKit          3D

 15 16  0  0  0  0  0  0  0  0999 V2000
    5.2703  -13.1474   25.1335 O   0  0  0  0  0  0  0  0  0  0  0  0
    4.1354  -13.0239   24.9146 C   0  0  0  0  0  0  0  0  0  0  0  0
    3.4176  -12.3072   23.7652 N   0  0  0  0  0  0  0  0  0  0  0  0
    3.9395  -11.6748   22.5970 C   0  0  0  0  0  0  0  0  0  0  0  0
    4.1783  -10.1910   22.8062 C   0  0  1  0  0  0  0  0  0  0  0  0
    5.0427   -9.8781   24.0254 C   0  0  0  0  0  0  0  0  0  0  0  0
    5.3756   -8.4033   23.9658 C   0  0  0  0  0  0  0  0  0  0  0  0
    5.5388   -8.0325   22.2047 S   0  0  0  0  0  0  0  0  0  0  0  0
    4.9255   -9.6125   21.6187 C   0  0  0  0  0  0  0  0  0  0  0  0
    3.1471  -13.5791   25.8449 C   0  0  0  0  0  0  0  0  0  0  0  0
    1.8183  -13.1813   26.1613 C   0  0  0  0  0  0  0  0  0  0  0  0
    1.2169  -13.9820   27.0521 N   0  0  0  0  0  0  0  0  0  0  0  0
    2.1836  -14.8665   27.3483 N   0  0  0  0  0  0  0  0  0  0  0  0
    3.3426  -14.6496   26.6858 C   0  0  0  0  0  0  0  0  0  0  0  0
    4.8870  -15.6998   26.9161 Br  0  0  0  0  0  0  0  0  0  0  0  0
  1  2  2  0
  2  3  1  0
  3  4  1  0
  5  4  1  6
  5  6  1  0
  6  7  1  0
  7  8  1  0
  8  9  1  0
  2 10  1  0
 10 11  1  0
 11 12  2  0
 12 13  1  0
 13 14  1  0
 14 15  1  0
  9  5  1  0
 14 10  2  0
M  END
>  <inchikey>  (1483) 
JQPRAWIDMAIOAR-UHFFFAOYSA-N

>  <tags>  (1483) 
fragmenstein_placed,CpKRS_FrAncestor_bulkdock_iter2

>  <ref_pdb>  (1483) 
x0654b

>  <energy_score>  (1483) 
-16.894624

>  <distance_score>  (1483) 
0.426601

>  <HIPPO Pose ID>  (1483) 
60810

>  <ref_mols>  (1483) 
x0502c

>  <smiles>  (1483) 
O=C(NCC1CCSC1)c1cn[nH]c1Br

>  <HIPPO Compound ID>  (1483) 
453073

>  <alias>  (1483) 
JQPRAWIDMAIOAR-UHFFFAOYSA-N-P46

>  <subsites>  (1483) 


>  <placement_batch>  (1483) 
CpKRS_FrAncestor_bulkdock_iter2

>  <name>  (1483) 
JQPRAWIDMAIOAR-UHFFFAOYSA-N-P46

$$$$
WJQJJRKSFMBUJP-UHFFFAOYSA-N-P46
     RDKit          3D

 15 16  0  0  0  0  0  0  0  0999 V2000
    5.4095  -13.2240   25.1361 O   0  0  0  0  0  0  0  0  0  0  0  0
    4.2727  -13.1040   24.9227 C   0  0  0  0  0  0  0  0  0  0  0  0
    3.5462  -12.3790   23.7820 N   0  0  0  0  0  0  0  0  0  0  0  0
    4.0609  -11.7321   22.6170 C   0  0  0  0  0  0  0  0  0  0  0  0
    4.2282  -10.2371   22.8162 C   0  0  1  0  0  0  0  0  0  0  0  0
    5.0651   -9.8773   24.0408 C   0  0  0  0  0  0  0  0  0  0  0  0
    5.3362   -8.3904   23.9705 C   0  0  0  0  0  0  0  0  0  0  0  0
    5.5145   -8.0311   22.2082 S   0  0  0  0  0  0  0  0  0  0  0  0
    4.9577   -9.6346   21.6295 C   0  0  0  0  0  0  0  0  0  0  0  0
    3.2949  -13.6776   25.8447 C   0  0  0  0  0  0  0  0  0  0  0  0
    1.9589  -13.3152   26.1752 C   0  0  0  0  0  0  0  0  0  0  0  0
    1.3784  -14.1456   27.0557 N   0  0  0  0  0  0  0  0  0  0  0  0
    2.3632  -15.0279   27.3172 N   0  0  0  0  0  0  0  0  0  0  0  0
    3.5118  -14.7530   26.6635 C   0  0  0  0  0  0  0  0  0  0  0  0
    4.8389  -15.7520   26.9582 Cl  0  0  0  0  0  0  0  0  0  0  0  0
  1  2  2  0
  2  3  1  0
  3  4  1  0
  5  4  1  6
  5  6  1  0
  6  7  1  0
  7  8  1  0
  8  9  1  0
  2 10  1  0
 10 11  1  0
 11 12  2  0
 12 13  1  0
 13 14  1  0
 14 15  1  0
  9  5  1  0
 14 10  2  0
M  END
>  <inchikey>  (1484) 
WJQJJRKSFMBUJP-UHFFFAOYSA-N

>  <tags>  (1484) 
fragmenstein_placed,CpKRS_FrAncestor_bulkdock_iter2

>  <ref_pdb>  (1484) 
x0654b

>  <energy_score>  (1484) 
-27.531003

>  <distance_score>  (1484) 
0.410101

>  <HIPPO Pose ID>  (1484) 
60813

>  <ref_mols>  (1484) 
x0502c

>  <smiles>  (1484) 
O=C(NCC1CCSC1)c1cn[nH]c1Cl

>  <HIPPO Compound ID>  (1484) 
453074

>  <alias>  (1484) 
WJQJJRKSFMBUJP-UHFFFAOYSA-N-P46

>  <subsites>  (1484) 


>  <placement_batch>  (1484) 
CpKRS_FrAncestor_bulkdock_iter2

>  <name>  (1484) 
WJQJJRKSFMBUJP-UHFFFAOYSA-N-P46

$$$$
QFJJMFIRQMGDEL-UHFFFAOYSA-N-P46
     RDKit          3D

 15 16  0  0  0  0  0  0  0  0999 V2000
    5.1613  -13.1557   25.1736 O   0  0  0  0  0  0  0  0  0  0  0  0
    4.0212  -13.0096   25.0007 C   0  0  0  0  0  0  0  0  0  0  0  0
    3.2715  -12.2815   23.8776 N   0  0  0  0  0  0  0  0  0  0  0  0
    3.7594  -11.6626   22.6838 C   0  0  0  0  0  0  0  0  0  0  0  0
    4.0952  -10.1917   22.8660 C   0  0  1  0  0  0  0  0  0  0  0  0
    4.9994   -9.9078   24.0626 C   0  0  0  0  0  0  0  0  0  0  0  0
    5.4123   -8.4530   23.9760 C   0  0  0  0  0  0  0  0  0  0  0  0
    5.5489   -8.1084   22.2075 S   0  0  0  0  0  0  0  0  0  0  0  0
    4.8604   -9.6736   21.6591 C   0  0  0  0  0  0  0  0  0  0  0  0
    3.0758  -13.5480   25.9676 C   0  0  0  0  0  0  0  0  0  0  0  0
    1.8678  -13.0255   26.3641 N   0  0  0  0  0  0  0  0  0  0  0  0
    1.1958  -13.7859   27.2587 N   0  0  0  0  0  0  0  0  0  0  0  0
    2.0756  -14.7452   27.5553 C   0  0  0  0  0  0  0  0  0  0  0  0
    3.2365  -14.6366   26.7932 C   0  0  0  0  0  0  0  0  0  0  0  0
    4.6869  -15.7857   26.9461 Br  0  0  0  0  0  0  0  0  0  0  0  0
  1  2  2  0
  2  3  1  0
  3  4  1  0
  5  4  1  6
  5  6  1  0
  6  7  1  0
  7  8  1  0
  8  9  1  0
  2 10  1  0
 10 11  1  0
 11 12  1  0
 12 13  2  0
 13 14  1  0
 14 15  1  0
  9  5  1  0
 14 10  2  0
M  END
>  <inchikey>  (1485) 
QFJJMFIRQMGDEL-UHFFFAOYSA-N

>  <tags>  (1485) 
fragmenstein_placed,CpKRS_FrAncestor_bulkdock_iter2

>  <ref_pdb>  (1485) 
x0654b

>  <energy_score>  (1485) 
-6.97257

>  <distance_score>  (1485) 
0.434533

>  <HIPPO Pose ID>  (1485) 
60816

>  <ref_mols>  (1485) 
x0502c

>  <smiles>  (1485) 
O=C(NCC1CCSC1)c1[nH]ncc1Br

>  <HIPPO Compound ID>  (1485) 
453075

>  <alias>  (1485) 
QFJJMFIRQMGDEL-UHFFFAOYSA-N-P46

>  <subsites>  (1485) 


>  <placement_batch>  (1485) 
CpKRS_FrAncestor_bulkdock_iter2

>  <name>  (1485) 
QFJJMFIRQMGDEL-UHFFFAOYSA-N-P46

$$$$
PAHQOGUTFJBNPN-UHFFFAOYSA-N-P46
     RDKit          3D

 15 16  0  0  0  0  0  0  0  0999 V2000
    5.3631  -13.2130   25.1915 O   0  0  0  0  0  0  0  0  0  0  0  0
    4.2219  -13.1070   24.9950 C   0  0  0  0  0  0  0  0  0  0  0  0
    3.4693  -12.3983   23.8587 N   0  0  0  0  0  0  0  0  0  0  0  0
    3.9603  -11.7541   22.6781 C   0  0  0  0  0  0  0  0  0  0  0  0
    4.1762  -10.2610   22.8593 C   0  0  1  0  0  0  0  0  0  0  0  0
    5.0351   -9.9076   24.0697 C   0  0  0  0  0  0  0  0  0  0  0  0
    5.3472   -8.4284   23.9795 C   0  0  0  0  0  0  0  0  0  0  0  0
    5.5111   -8.0904   22.2120 S   0  0  0  0  0  0  0  0  0  0  0  0
    4.9164   -9.6919   21.6601 C   0  0  0  0  0  0  0  0  0  0  0  0
    3.2752  -13.6746   25.9430 C   0  0  0  0  0  0  0  0  0  0  0  0
    2.0524  -13.1730   26.3169 N   0  0  0  0  0  0  0  0  0  0  0  0
    1.3693  -13.9501   27.1848 N   0  0  0  0  0  0  0  0  0  0  0  0
    2.2525  -14.9082   27.4771 C   0  0  0  0  0  0  0  0  0  0  0  0
    3.4465  -14.7751   26.7568 C   0  0  0  0  0  0  0  0  0  0  0  0
    4.7821  -15.7930   26.9075 Cl  0  0  0  0  0  0  0  0  0  0  0  0
  1  2  2  0
  2  3  1  0
  3  4  1  0
  5  4  1  6
  5  6  1  0
  6  7  1  0
  7  8  1  0
  8  9  1  0
  2 10  1  0
 10 11  1  0
 11 12  1  0
 12 13  2  0
 13 14  1  0
 14 15  1  0
  9  5  1  0
 14 10  2  0
M  END
>  <inchikey>  (1486) 
PAHQOGUTFJBNPN-UHFFFAOYSA-N

>  <tags>  (1486) 
fragmenstein_placed,CpKRS_FrAncestor_bulkdock_iter2

>  <ref_pdb>  (1486) 
x0654b

>  <energy_score>  (1486) 
-7.892722

>  <distance_score>  (1486) 
0.388686

>  <HIPPO Pose ID>  (1486) 
60819

>  <ref_mols>  (1486) 
x0502c

>  <smiles>  (1486) 
O=C(NCC1CCSC1)c1[nH]ncc1Cl

>  <HIPPO Compound ID>  (1486) 
453076

>  <alias>  (1486) 
PAHQOGUTFJBNPN-UHFFFAOYSA-N-P46

>  <subsites>  (1486) 


>  <placement_batch>  (1486) 
CpKRS_FrAncestor_bulkdock_iter2

>  <name>  (1486) 
PAHQOGUTFJBNPN-UHFFFAOYSA-N-P46

$$$$
SHAAYLWLJGEZJJ-UHFFFAOYSA-N-P45
     RDKit          3D

 15 16  0  0  0  0  0  0  0  0999 V2000
    5.6505  -13.6929   25.2065 O   0  0  0  0  0  0  0  0  0  0  0  0
    4.5196  -13.4679   25.0428 C   0  0  0  0  0  0  0  0  0  0  0  0
    3.8181  -12.6049   23.9777 N   0  0  0  0  0  0  0  0  0  0  0  0
    4.3512  -11.9159   22.8364 C   0  0  0  0  0  0  0  0  0  0  0  0
    4.2806  -10.3981   22.9795 C   0  0  2  0  0  0  0  0  0  0  0  0
    4.9965   -9.6756   21.8382 C   0  0  0  0  0  0  0  0  0  0  0  0
    4.9742   -8.2019   22.1917 C   0  0  0  0  0  0  0  0  0  0  0  0
    5.3068   -8.1422   23.9652 S   0  0  0  0  0  0  0  0  0  0  0  0
    4.9566   -9.8990   24.2510 C   0  0  0  0  0  0  0  0  0  0  0  0
    3.5188  -13.9778   25.9667 C   0  0  0  0  0  0  0  0  0  0  0  0
    2.2487  -13.4345   25.9797 O   0  0  0  0  0  0  0  0  0  0  0  0
    1.5703  -14.0479   26.9873 C   0  0  0  0  0  0  0  0  0  0  0  0
    2.3517  -14.9942   27.6059 C   0  0  0  0  0  0  0  0  0  0  0  0
    3.5903  -14.9393   26.9460 C   0  0  0  0  0  0  0  0  0  0  0  0
    4.6566  -15.6857   27.2509 F   0  0  0  0  0  0  0  0  0  0  0  0
  1  2  2  0
  2  3  1  0
  3  4  1  0
  5  4  1  6
  5  6  1  0
  6  7  1  0
  7  8  1  0
  8  9  1  0
  2 10  1  0
 10 11  1  0
 11 12  1  0
 12 13  2  0
 13 14  1  0
 14 15  1  0
  9  5  1  0
 14 10  2  0
M  END
>  <inchikey>  (1487) 
SHAAYLWLJGEZJJ-UHFFFAOYSA-N

>  <tags>  (1487) 
fragmenstein_placed,CpKRS_FrAncestor_bulkdock_iter2

>  <ref_pdb>  (1487) 
x0654b

>  <energy_score>  (1487) 
-9.675095

>  <distance_score>  (1487) 
0.397081

>  <HIPPO Pose ID>  (1487) 
60820

>  <ref_mols>  (1487) 
x0502a

>  <smiles>  (1487) 
O=C(NCC1CCSC1)c1occc1F

>  <HIPPO Compound ID>  (1487) 
394252

>  <alias>  (1487) 
SHAAYLWLJGEZJJ-UHFFFAOYSA-N-P45

>  <subsites>  (1487) 


>  <placement_batch>  (1487) 
CpKRS_FrAncestor_bulkdock_iter2

>  <name>  (1487) 
SHAAYLWLJGEZJJ-UHFFFAOYSA-N-P45

$$$$
OMGYZJPMSRCUMI-UHFFFAOYSA-N-P45
     RDKit          3D

 15 16  0  0  0  0  0  0  0  0999 V2000
    5.6599  -13.6160   25.1778 O   0  0  0  0  0  0  0  0  0  0  0  0
    4.5258  -13.4382   24.9821 C   0  0  0  0  0  0  0  0  0  0  0  0
    3.8191  -12.6197   23.8862 N   0  0  0  0  0  0  0  0  0  0  0  0
    4.3544  -11.9272   22.7481 C   0  0  0  0  0  0  0  0  0  0  0  0
    4.3090  -10.4116   22.9395 C   0  0  1  0  0  0  0  0  0  0  0  0
    5.0528   -9.9608   24.1947 C   0  0  0  0  0  0  0  0  0  0  0  0
    5.1410   -8.4499   24.1665 C   0  0  0  0  0  0  0  0  0  0  0  0
    5.2727   -8.0039   22.4226 S   0  0  0  0  0  0  0  0  0  0  0  0
    4.9863   -9.6746   21.7928 C   0  0  0  0  0  0  0  0  0  0  0  0
    3.5383  -13.9714   25.9256 C   0  0  0  0  0  0  0  0  0  0  0  0
    1.9506  -13.3175   26.0767 S   0  0  0  0  0  0  0  0  0  0  0  0
    1.6108  -14.2864   27.4428 C   0  0  0  0  0  0  0  0  0  0  0  0
    2.6300  -15.1642   27.7240 C   0  0  0  0  0  0  0  0  0  0  0  0
    3.7269  -14.9687   26.8549 C   0  0  0  0  0  0  0  0  0  0  0  0
    4.8588  -15.6771   26.9788 F   0  0  0  0  0  0  0  0  0  0  0  0
  1  2  2  0
  2  3  1  0
  3  4  1  0
  5  4  1  6
  5  6  1  0
  6  7  1  0
  7  8  1  0
  8  9  1  0
  2 10  1  0
 10 11  1  0
 11 12  1  0
 12 13  2  0
 13 14  1  0
 14 15  1  0
  9  5  1  0
 14 10  2  0
M  END
>  <inchikey>  (1488) 
OMGYZJPMSRCUMI-UHFFFAOYSA-N

>  <tags>  (1488) 
fragmenstein_placed,CpKRS_FrAncestor_bulkdock_iter2

>  <ref_pdb>  (1488) 
x0654b

>  <energy_score>  (1488) 
-12.790305

>  <distance_score>  (1488) 
0.350149

>  <HIPPO Pose ID>  (1488) 
60823

>  <ref_mols>  (1488) 
x0502a

>  <smiles>  (1488) 
O=C(NCC1CCSC1)c1sccc1F

>  <HIPPO Compound ID>  (1488) 
394238

>  <alias>  (1488) 
OMGYZJPMSRCUMI-UHFFFAOYSA-N-P45

>  <subsites>  (1488) 


>  <placement_batch>  (1488) 
CpKRS_FrAncestor_bulkdock_iter2

>  <name>  (1488) 
OMGYZJPMSRCUMI-UHFFFAOYSA-N-P45

$$$$
FIVNUXGEMRXQDJ-UHFFFAOYSA-N-P64
     RDKit          3D

 15 16  0  0  0  0  0  0  0  0999 V2000
    5.4684  -14.3802   24.3807 O   0  0  0  0  0  0  0  0  0  0  0  0
    4.5426  -13.6773   24.4224 C   0  0  0  0  0  0  0  0  0  0  0  0
    4.1738  -12.4674   23.5565 N   0  0  0  0  0  0  0  0  0  0  0  0
    4.8163  -11.9212   22.3960 C   0  0  0  0  0  0  0  0  0  0  0  0
    5.0820  -10.4586   22.5965 C   0  0  0  0  0  0  0  0  0  0  0  0
    5.0643   -9.4731   21.5558 C   0  0  0  0  0  0  0  0  0  0  0  0
    5.3647   -8.2079   22.0072 C   0  0  0  0  0  0  0  0  0  0  0  0
    5.6804   -8.1817   23.6815 S   0  0  0  0  0  0  0  0  0  0  0  0
    5.4378   -9.8639   23.7920 C   0  0  0  0  0  0  0  0  0  0  0  0
    3.5294  -13.9156   25.4496 C   0  0  0  0  0  0  0  0  0  0  0  0
    2.2759  -13.3713   25.7104 C   0  0  0  0  0  0  0  0  0  0  0  0
    1.7331  -14.0203   26.8525 C   0  0  0  0  0  0  0  0  0  0  0  0
    2.6622  -14.9398   27.2476 C   0  0  0  0  0  0  0  0  0  0  0  0
    2.6719  -16.0659   28.5160 Cl  0  0  0  0  0  0  0  0  0  0  0  0
    3.7419  -14.8753   26.4274 N   0  0  0  0  0  0  0  0  0  0  0  0
  1  2  2  0
  2  3  1  0
  3  4  1  0
  4  5  1  0
  5  6  1  0
  6  7  2  0
  7  8  1  0
  8  9  1  0
  2 10  1  0
 10 11  2  0
 11 12  1  0
 12 13  2  0
 13 14  1  0
 13 15  1  0
  9  5  2  0
 15 10  1  0
M  END
>  <inchikey>  (1489) 
FIVNUXGEMRXQDJ-UHFFFAOYSA-N

>  <tags>  (1489) 
fragmenstein_placed,CpKRS_FrAncestor_bulkdock_iter2

>  <ref_pdb>  (1489) 
x0654b

>  <energy_score>  (1489) 
-7.616567

>  <distance_score>  (1489) 
0.387769

>  <HIPPO Pose ID>  (1489) 
60827

>  <ref_mols>  (1489) 
x0787b

>  <smiles>  (1489) 
O=C(NCc1ccsc1)c1ccc(Cl)[nH]1

>  <HIPPO Compound ID>  (1489) 
393450

>  <alias>  (1489) 
FIVNUXGEMRXQDJ-UHFFFAOYSA-N-P64

>  <subsites>  (1489) 


>  <placement_batch>  (1489) 
CpKRS_FrAncestor_bulkdock_iter2

>  <name>  (1489) 
FIVNUXGEMRXQDJ-UHFFFAOYSA-N-P64

$$$$
FXIJHCHAGRWSBK-UHFFFAOYSA-N-P55
     RDKit          3D

 15 16  0  0  0  0  0  0  0  0999 V2000
    5.0358  -13.5627   24.4770 O   0  0  0  0  0  0  0  0  0  0  0  0
    3.9084  -13.3815   24.6995 C   0  0  0  0  0  0  0  0  0  0  0  0
    2.8759  -12.5256   23.9606 N   0  0  0  0  0  0  0  0  0  0  0  0
    2.9825  -11.7899   22.7459 C   0  0  0  0  0  0  0  0  0  0  0  0
    3.9456  -10.6530   22.8692 C   0  0  0  0  0  0  0  0  0  0  0  0
    5.1009  -10.4794   22.0414 C   0  0  0  0  0  0  0  0  0  0  0  0
    5.7532   -9.3109   22.3565 C   0  0  0  0  0  0  0  0  0  0  0  0
    4.9686   -8.5872   23.6821 S   0  0  0  0  0  0  0  0  0  0  0  0
    3.7129   -9.6685   23.7460 N   0  0  0  0  0  0  0  0  0  0  0  0
    3.2762  -14.0417   25.8601 C   0  0  0  0  0  0  0  0  0  0  0  0
    1.9944  -13.8790   26.3780 C   0  0  0  0  0  0  0  0  0  0  0  0
    1.8628  -14.6819   27.4827 N   0  0  0  0  0  0  0  0  0  0  0  0
    3.0405  -15.3228   27.7039 C   0  0  0  0  0  0  0  0  0  0  0  0
    3.4057  -16.4203   29.1870 Br  0  0  0  0  0  0  0  0  0  0  0  0
    3.9231  -14.9912   26.7117 C   0  0  0  0  0  0  0  0  0  0  0  0
  1  2  2  0
  2  3  1  0
  3  4  1  0
  4  5  1  0
  5  6  1  0
  6  7  2  0
  7  8  1  0
  8  9  1  0
  2 10  1  0
 10 11  2  0
 11 12  1  0
 12 13  1  0
 13 14  1  0
 13 15  2  0
  9  5  2  0
 15 10  1  0
M  END
>  <inchikey>  (1490) 
FXIJHCHAGRWSBK-UHFFFAOYSA-N

>  <tags>  (1490) 
fragmenstein_placed,CpKRS_FrAncestor_bulkdock_iter2

>  <ref_pdb>  (1490) 
x0654b

>  <energy_score>  (1490) 
-15.613055

>  <distance_score>  (1490) 
0.643908

>  <HIPPO Pose ID>  (1490) 
60828

>  <ref_mols>  (1490) 
x0646a

>  <smiles>  (1490) 
O=C(NCc1ccsn1)c1c[nH]c(Br)c1

>  <HIPPO Compound ID>  (1490) 
453077

>  <alias>  (1490) 
FXIJHCHAGRWSBK-UHFFFAOYSA-N-P55

>  <subsites>  (1490) 


>  <placement_batch>  (1490) 
CpKRS_FrAncestor_bulkdock_iter2

>  <name>  (1490) 
FXIJHCHAGRWSBK-UHFFFAOYSA-N-P55

$$$$
NOBSAZCWEWGOMP-UHFFFAOYSA-N-P64
     RDKit          3D

 15 16  0  0  0  0  0  0  0  0999 V2000
    5.4942  -14.2998   24.3245 O   0  0  0  0  0  0  0  0  0  0  0  0
    4.5273  -13.6527   24.3259 C   0  0  0  0  0  0  0  0  0  0  0  0
    4.1209  -12.4706   23.4374 N   0  0  0  0  0  0  0  0  0  0  0  0
    4.7753  -11.8920   22.2963 C   0  0  0  0  0  0  0  0  0  0  0  0
    5.0631  -10.4476   22.5481 C   0  0  0  0  0  0  0  0  0  0  0  0
    5.0248   -9.3606   21.6925 C   0  0  0  0  0  0  0  0  0  0  0  0
    5.3376   -8.1271   22.2496 N   0  0  0  0  0  0  0  0  0  0  0  0
    5.7018   -8.3173   23.4973 C   0  0  0  0  0  0  0  0  0  0  0  0
    6.2859   -6.9140   24.6541 Br  0  0  0  0  0  0  0  0  0  0  0  0
    5.6033   -9.9023   24.0747 S   0  0  0  0  0  0  0  0  0  0  0  0
    3.5049  -13.9241   25.3376 C   0  0  0  0  0  0  0  0  0  0  0  0
    2.2905  -13.3371   25.6632 C   0  0  0  0  0  0  0  0  0  0  0  0
    1.7407  -14.0364   26.7686 C   0  0  0  0  0  0  0  0  0  0  0  0
    2.6233  -15.0345   27.1024 C   0  0  0  0  0  0  0  0  0  0  0  0
    3.6908  -14.9462   26.2517 N   0  0  0  0  0  0  0  0  0  0  0  0
  1  2  2  0
  2  3  1  0
  3  4  1  0
  4  5  1  0
  5  6  2  0
  6  7  1  0
  7  8  2  0
  8  9  1  0
  8 10  1  0
  2 11  1  0
 11 12  2  0
 12 13  1  0
 13 14  2  0
 14 15  1  0
 10  5  1  0
 15 11  1  0
M  END
>  <inchikey>  (1491) 
NOBSAZCWEWGOMP-UHFFFAOYSA-N

>  <tags>  (1491) 
fragmenstein_placed,CpKRS_FrAncestor_bulkdock_iter2

>  <ref_pdb>  (1491) 
x0654b

>  <energy_score>  (1491) 
-40.880307

>  <distance_score>  (1491) 
0.385174

>  <HIPPO Pose ID>  (1491) 
60830

>  <ref_mols>  (1491) 
x0787b

>  <smiles>  (1491) 
O=C(NCc1cnc(Br)s1)c1ccc[nH]1

>  <HIPPO Compound ID>  (1491) 
453078

>  <alias>  (1491) 
NOBSAZCWEWGOMP-UHFFFAOYSA-N-P64

>  <subsites>  (1491) 


>  <placement_batch>  (1491) 
CpKRS_FrAncestor_bulkdock_iter2

>  <name>  (1491) 
NOBSAZCWEWGOMP-UHFFFAOYSA-N-P64

$$$$
JJTMHFOIRCCOTG-UHFFFAOYSA-N-P49
     RDKit          3D

 12 12  0  0  0  0  0  0  0  0999 V2000
    5.4608  -11.5768   22.3857 O   0  0  0  0  0  0  0  0  0  0  0  0
    4.6684  -11.2755   23.1908 C   0  0  0  0  0  0  0  0  0  0  0  0
    3.9845  -12.1272   24.3011 N   0  0  0  0  0  0  0  0  0  0  0  0
    4.0673  -13.5368   24.5815 C   0  0  0  0  0  0  0  0  0  0  0  0
    3.1131  -13.9082   25.6497 C   0  0  0  0  0  0  0  0  0  0  0  0
    3.0567  -14.9290   26.5741 C   0  0  0  0  0  0  0  0  0  0  0  0
    1.9251  -14.8082   27.3454 N   0  0  0  0  0  0  0  0  0  0  0  0
    1.3567  -13.7231   26.8783 C   0  0  0  0  0  0  0  0  0  0  0  0
    1.9999  -13.1251   25.8402 O   0  0  0  0  0  0  0  0  0  0  0  0
    4.0944   -9.8537   23.2728 C   0  0  2  0  0  0  0  0  0  0  0  0
    4.4636   -9.0566   22.2327 F   0  0  0  0  0  0  0  0  0  0  0  0
    4.7397   -9.0182   24.8984 Br  0  0  0  0  0  0  0  0  0  0  0  0
  1  2  2  0
  2  3  1  0
  3  4  1  0
  4  5  1  0
  5  6  2  0
  6  7  1  0
  7  8  2  0
  8  9  1  0
  2 10  1  0
 10 11  1  6
 10 12  1  0
  9  5  1  0
M  END
>  <inchikey>  (1492) 
JJTMHFOIRCCOTG-UHFFFAOYSA-N

>  <tags>  (1492) 
fragmenstein_placed,CpKRS_FrAncestor_bulkdock_iter2

>  <ref_pdb>  (1492) 
x0654b

>  <energy_score>  (1492) 
-5.797091

>  <distance_score>  (1492) 
0.642305

>  <HIPPO Pose ID>  (1492) 
60832

>  <ref_mols>  (1492) 
x0504b

>  <smiles>  (1492) 
O=C(NCc1cnco1)C(F)Br

>  <HIPPO Compound ID>  (1492) 
270163

>  <alias>  (1492) 
JJTMHFOIRCCOTG-UHFFFAOYSA-N-P49

>  <subsites>  (1492) 


>  <placement_batch>  (1492) 
CpKRS_FrAncestor_bulkdock_iter2

>  <name>  (1492) 
JJTMHFOIRCCOTG-UHFFFAOYSA-N-P49

$$$$
JDFMWNMKZFASHF-UHFFFAOYSA-N-P49
     RDKit          3D

 12 12  0  0  0  0  0  0  0  0999 V2000
    4.0705  -11.3528   21.9801 O   0  0  0  0  0  0  0  0  0  0  0  0
    4.0879  -11.1661   23.1336 C   0  0  0  0  0  0  0  0  0  0  0  0
    3.8883  -12.1543   24.3167 N   0  0  0  0  0  0  0  0  0  0  0  0
    3.7221  -13.5825   24.3220 C   0  0  0  0  0  0  0  0  0  0  0  0
    2.9741  -13.9866   25.5323 C   0  0  0  0  0  0  0  0  0  0  0  0
    3.1047  -14.9998   26.4570 C   0  0  0  0  0  0  0  0  0  0  0  0
    2.1066  -14.9130   27.3978 N   0  0  0  0  0  0  0  0  0  0  0  0
    1.4316  -13.8527   27.0250 C   0  0  0  0  0  0  0  0  0  0  0  0
    1.8764  -13.2445   25.8943 O   0  0  0  0  0  0  0  0  0  0  0  0
    4.2306   -9.7644   23.7501 C   0  0  0  0  0  0  0  0  0  0  0  0
    5.0492   -8.9440   23.0340 F   0  0  0  0  0  0  0  0  0  0  0  0
    4.7435   -9.7984   25.0138 F   0  0  0  0  0  0  0  0  0  0  0  0
  1  2  2  0
  2  3  1  0
  3  4  1  0
  4  5  1  0
  5  6  2  0
  6  7  1  0
  7  8  2  0
  8  9  1  0
  2 10  1  0
 10 11  1  0
 10 12  1  0
  9  5  1  0
M  END
>  <inchikey>  (1493) 
JDFMWNMKZFASHF-UHFFFAOYSA-N

>  <tags>  (1493) 
fragmenstein_placed,CpKRS_FrAncestor_bulkdock_iter2

>  <ref_pdb>  (1493) 
x0654b

>  <energy_score>  (1493) 
-1.286509

>  <distance_score>  (1493) 
0.492858

>  <HIPPO Pose ID>  (1493) 
60835

>  <ref_mols>  (1493) 
x0504b

>  <smiles>  (1493) 
O=C(NCc1cnco1)C(F)F

>  <HIPPO Compound ID>  (1493) 
268331

>  <alias>  (1493) 
JDFMWNMKZFASHF-UHFFFAOYSA-N-P49

>  <subsites>  (1493) 


>  <placement_batch>  (1493) 
CpKRS_FrAncestor_bulkdock_iter2

>  <name>  (1493) 
JDFMWNMKZFASHF-UHFFFAOYSA-N-P49

$$$$
YVCRNIRPZBJNPP-UHFFFAOYSA-N-P64
     RDKit          3D

 15 16  0  0  0  0  0  0  0  0999 V2000
    5.6365  -13.9580   24.5098 O   0  0  0  0  0  0  0  0  0  0  0  0
    4.6305  -13.3876   24.3832 C   0  0  0  0  0  0  0  0  0  0  0  0
    4.2058  -12.3379   23.3477 N   0  0  0  0  0  0  0  0  0  0  0  0
    4.9580  -11.6976   22.3063 C   0  0  0  0  0  0  0  0  0  0  0  0
    5.1206  -10.2357   22.5543 C   0  0  0  0  0  0  0  0  0  0  0  0
    4.9936   -9.1882   21.6608 C   0  0  0  0  0  0  0  0  0  0  0  0
    5.2014   -7.9177   22.1671 N   0  0  0  0  0  0  0  0  0  0  0  0
    5.5782   -8.0193   23.4233 C   0  0  0  0  0  0  0  0  0  0  0  0
    5.6177   -9.6002   24.0638 S   0  0  0  0  0  0  0  0  0  0  0  0
    3.5278  -13.7172   25.2803 C   0  0  0  0  0  0  0  0  0  0  0  0
    2.1674  -13.4524   25.2488 C   0  0  0  0  0  0  0  0  0  0  0  0
    1.5836  -14.1183   26.3439 C   0  0  0  0  0  0  0  0  0  0  0  0
   -0.2562  -14.1405   26.6723 Br  0  0  0  0  0  0  0  0  0  0  0  0
    2.5673  -14.7511   27.0538 C   0  0  0  0  0  0  0  0  0  0  0  0
    3.7479  -14.4938   26.4072 N   0  0  0  0  0  0  0  0  0  0  0  0
  1  2  2  0
  2  3  1  0
  3  4  1  0
  4  5  1  0
  5  6  2  0
  6  7  1  0
  7  8  2  0
  8  9  1  0
  2 10  1  0
 10 11  2  0
 11 12  1  0
 12 13  1  0
 12 14  2  0
 14 15  1  0
  9  5  1  0
 15 10  1  0
M  END
>  <inchikey>  (1494) 
YVCRNIRPZBJNPP-UHFFFAOYSA-N

>  <tags>  (1494) 
fragmenstein_placed,CpKRS_FrAncestor_bulkdock_iter2

>  <ref_pdb>  (1494) 
x0654b

>  <energy_score>  (1494) 
-46.388703

>  <distance_score>  (1494) 
0.526388

>  <HIPPO Pose ID>  (1494) 
60838

>  <ref_mols>  (1494) 
x0787b

>  <smiles>  (1494) 
O=C(NCc1cncs1)c1cc(Br)c[nH]1

>  <HIPPO Compound ID>  (1494) 
453079

>  <alias>  (1494) 
YVCRNIRPZBJNPP-UHFFFAOYSA-N-P64

>  <subsites>  (1494) 


>  <placement_batch>  (1494) 
CpKRS_FrAncestor_bulkdock_iter2

>  <name>  (1494) 
YVCRNIRPZBJNPP-UHFFFAOYSA-N-P64

$$$$
VZZYRRLXTGSUOF-UHFFFAOYSA-N-P64
     RDKit          3D

 15 16  0  0  0  0  0  0  0  0999 V2000
    5.4590  -14.2855   24.2871 O   0  0  0  0  0  0  0  0  0  0  0  0
    4.5684  -13.5433   24.3830 C   0  0  0  0  0  0  0  0  0  0  0  0
    4.2417  -12.2739   23.5861 N   0  0  0  0  0  0  0  0  0  0  0  0
    4.8893  -11.6987   22.4403 C   0  0  0  0  0  0  0  0  0  0  0  0
    5.1028  -10.2309   22.6107 C   0  0  0  0  0  0  0  0  0  0  0  0
    4.9937   -9.2246   21.6688 C   0  0  0  0  0  0  0  0  0  0  0  0
    5.2286   -7.9359   22.1149 N   0  0  0  0  0  0  0  0  0  0  0  0
    5.6168   -7.9861   23.3704 C   0  0  0  0  0  0  0  0  0  0  0  0
    5.6371   -9.5351   24.0825 S   0  0  0  0  0  0  0  0  0  0  0  0
    3.5571  -13.7981   25.4086 C   0  0  0  0  0  0  0  0  0  0  0  0
    2.3129  -13.2439   25.6913 C   0  0  0  0  0  0  0  0  0  0  0  0
    1.7632  -13.9223   26.8135 C   0  0  0  0  0  0  0  0  0  0  0  0
    2.6793  -14.8681   27.1761 C   0  0  0  0  0  0  0  0  0  0  0  0
    2.6773  -16.0313   28.4115 Cl  0  0  0  0  0  0  0  0  0  0  0  0
    3.7556  -14.7956   26.3517 N   0  0  0  0  0  0  0  0  0  0  0  0
  1  2  2  0
  2  3  1  0
  3  4  1  0
  4  5  1  0
  5  6  2  0
  6  7  1  0
  7  8  2  0
  8  9  1  0
  2 10  1  0
 10 11  2  0
 11 12  1  0
 12 13  2  0
 13 14  1  0
 13 15  1  0
  9  5  1  0
 15 10  1  0
M  END
>  <inchikey>  (1495) 
VZZYRRLXTGSUOF-UHFFFAOYSA-N

>  <tags>  (1495) 
fragmenstein_placed,CpKRS_FrAncestor_bulkdock_iter2

>  <ref_pdb>  (1495) 
x0654b

>  <energy_score>  (1495) 
-30.066049

>  <distance_score>  (1495) 
0.410157

>  <HIPPO Pose ID>  (1495) 
60840

>  <ref_mols>  (1495) 
x0787b

>  <smiles>  (1495) 
O=C(NCc1cncs1)c1ccc(Cl)[nH]1

>  <HIPPO Compound ID>  (1495) 
453080

>  <alias>  (1495) 
VZZYRRLXTGSUOF-UHFFFAOYSA-N-P64

>  <subsites>  (1495) 


>  <placement_batch>  (1495) 
CpKRS_FrAncestor_bulkdock_iter2

>  <name>  (1495) 
VZZYRRLXTGSUOF-UHFFFAOYSA-N-P64

$$$$
NLXUXOXFMWYOIE-UHFFFAOYSA-N-P64
     RDKit          3D

 16 17  0  0  0  0  0  0  0  0999 V2000
    5.6217  -14.0989   24.4432 O   0  0  0  0  0  0  0  0  0  0  0  0
    4.6403  -13.4763   24.3963 C   0  0  0  0  0  0  0  0  0  0  0  0
    4.2056  -12.3770   23.4180 N   0  0  0  0  0  0  0  0  0  0  0  0
    4.9237  -11.7434   22.3462 C   0  0  0  0  0  0  0  0  0  0  0  0
    5.0996  -10.2788   22.5731 C   0  0  0  0  0  0  0  0  0  0  0  0
    4.9878   -9.2443   21.6620 C   0  0  0  0  0  0  0  0  0  0  0  0
    5.2028   -7.9674   22.1493 N   0  0  0  0  0  0  0  0  0  0  0  0
    5.5764   -8.0519   23.4074 C   0  0  0  0  0  0  0  0  0  0  0  0
    5.5984   -9.6229   24.0729 S   0  0  0  0  0  0  0  0  0  0  0  0
    3.5804  -13.7903   25.3508 C   0  0  0  0  0  0  0  0  0  0  0  0
    2.2432  -13.4249   25.4536 C   0  0  0  0  0  0  0  0  0  0  0  0
    1.6728  -14.1308   26.5450 C   0  0  0  0  0  0  0  0  0  0  0  0
    0.0400  -14.0507   26.9937 Cl  0  0  0  0  0  0  0  0  0  0  0  0
    2.6734  -14.8796   27.0965 C   0  0  0  0  0  0  0  0  0  0  0  0
    2.7134  -15.9713   28.3976 Cl  0  0  0  0  0  0  0  0  0  0  0  0
    3.8212  -14.6670   26.3998 N   0  0  0  0  0  0  0  0  0  0  0  0
  1  2  2  0
  2  3  1  0
  3  4  1  0
  4  5  1  0
  5  6  2  0
  6  7  1  0
  7  8  2  0
  8  9  1  0
  2 10  1  0
 10 11  2  0
 11 12  1  0
 12 13  1  0
 12 14  2  0
 14 15  1  0
 14 16  1  0
  9  5  1  0
 16 10  1  0
M  END
>  <inchikey>  (1496) 
NLXUXOXFMWYOIE-UHFFFAOYSA-N

>  <tags>  (1496) 
fragmenstein_placed,CpKRS_FrAncestor_bulkdock_iter2

>  <ref_pdb>  (1496) 
x0654b

>  <energy_score>  (1496) 
-31.040926

>  <distance_score>  (1496) 
0.428926

>  <HIPPO Pose ID>  (1496) 
60842

>  <ref_mols>  (1496) 
x0787b

>  <smiles>  (1496) 
O=C(NCc1cncs1)c1cc(Cl)c(Cl)[nH]1

>  <HIPPO Compound ID>  (1496) 
453081

>  <alias>  (1496) 
NLXUXOXFMWYOIE-UHFFFAOYSA-N-P64

>  <subsites>  (1496) 


>  <placement_batch>  (1496) 
CpKRS_FrAncestor_bulkdock_iter2

>  <name>  (1496) 
NLXUXOXFMWYOIE-UHFFFAOYSA-N-P64

$$$$
LAISAKIMTOJKMD-UHFFFAOYSA-N-P64
     RDKit          3D

 15 16  0  0  0  0  0  0  0  0999 V2000
    5.6031  -14.0683   24.4303 O   0  0  0  0  0  0  0  0  0  0  0  0
    4.6206  -13.4479   24.3736 C   0  0  0  0  0  0  0  0  0  0  0  0
    4.1937  -12.3491   23.3918 N   0  0  0  0  0  0  0  0  0  0  0  0
    4.9209  -11.7135   22.3289 C   0  0  0  0  0  0  0  0  0  0  0  0
    5.1004  -10.2514   22.5660 C   0  0  0  0  0  0  0  0  0  0  0  0
    4.9879   -9.2098   21.6632 C   0  0  0  0  0  0  0  0  0  0  0  0
    5.2076   -7.9374   22.1596 N   0  0  0  0  0  0  0  0  0  0  0  0
    5.5820   -8.0325   23.4169 C   0  0  0  0  0  0  0  0  0  0  0  0
    5.6042   -9.6087   24.0699 S   0  0  0  0  0  0  0  0  0  0  0  0
    3.5538  -13.7544   25.3226 C   0  0  0  0  0  0  0  0  0  0  0  0
    2.2108  -13.4160   25.3950 C   0  0  0  0  0  0  0  0  0  0  0  0
    1.6498  -14.0905   26.5059 C   0  0  0  0  0  0  0  0  0  0  0  0
    0.0145  -14.0311   26.9489 Cl  0  0  0  0  0  0  0  0  0  0  0  0
    2.6505  -14.8052   27.1135 C   0  0  0  0  0  0  0  0  0  0  0  0
    3.7991  -14.5874   26.4014 N   0  0  0  0  0  0  0  0  0  0  0  0
  1  2  2  0
  2  3  1  0
  3  4  1  0
  4  5  1  0
  5  6  2  0
  6  7  1  0
  7  8  2  0
  8  9  1  0
  2 10  1  0
 10 11  2  0
 11 12  1  0
 12 13  1  0
 12 14  2  0
 14 15  1  0
  9  5  1  0
 15 10  1  0
M  END
>  <inchikey>  (1497) 
LAISAKIMTOJKMD-UHFFFAOYSA-N

>  <tags>  (1497) 
fragmenstein_placed,CpKRS_FrAncestor_bulkdock_iter2

>  <ref_pdb>  (1497) 
x0654b

>  <energy_score>  (1497) 
-32.357874

>  <distance_score>  (1497) 
0.478618

>  <HIPPO Pose ID>  (1497) 
60844

>  <ref_mols>  (1497) 
x0787b

>  <smiles>  (1497) 
O=C(NCc1cncs1)c1cc(Cl)c[nH]1

>  <HIPPO Compound ID>  (1497) 
453082

>  <alias>  (1497) 
LAISAKIMTOJKMD-UHFFFAOYSA-N-P64

>  <subsites>  (1497) 


>  <placement_batch>  (1497) 
CpKRS_FrAncestor_bulkdock_iter2

>  <name>  (1497) 
LAISAKIMTOJKMD-UHFFFAOYSA-N-P64

$$$$
CKIBXRMIOPDESE-UHFFFAOYSA-N-P16
     RDKit          3D

 20 21  0  0  0  0  0  0  0  0999 V2000
    5.9360  -13.9523   24.9869 O   0  0  0  0  0  0  0  0  0  0  0  0
    4.8215  -13.7151   24.7447 C   0  0  0  0  0  0  0  0  0  0  0  0
    4.1963  -12.9786   23.5474 N   0  0  0  0  0  0  0  0  0  0  0  0
    4.7982  -12.4637   22.3543 C   0  0  0  0  0  0  0  0  0  0  0  0
    4.9696  -10.9986   22.4687 C   0  0  0  0  0  0  0  0  0  0  0  0
    4.9887  -10.0477   21.4273 C   0  0  0  0  0  0  0  0  0  0  0  0
    5.1358   -8.7970   21.8682 N   0  0  0  0  0  0  0  0  0  0  0  0
    5.2696   -8.9162   23.2404 O   0  0  0  0  0  0  0  0  0  0  0  0
    5.1761  -10.2223   23.5833 C   0  0  0  0  0  0  0  0  0  0  0  0
    3.7964  -14.1520   25.7540 C   0  0  0  0  0  0  0  0  0  0  0  0
    4.1710  -15.0758   26.7427 C   0  0  0  0  0  0  0  0  0  0  0  0
    3.2754  -15.4484   27.7504 C   0  0  0  0  0  0  0  0  0  0  0  0
    1.9926  -14.9025   27.7826 C   0  0  0  0  0  0  0  0  0  0  0  0
    1.5916  -14.0064   26.7855 C   0  0  0  0  0  0  0  0  0  0  0  0
    0.2132  -13.4436   26.6921 C   0  0  0  0  0  0  0  0  0  0  0  0
    0.1866  -12.0943   26.4975 F   0  0  0  0  0  0  0  0  0  0  0  0
   -0.5448  -13.6511   27.8058 F   0  0  0  0  0  0  0  0  0  0  0  0
   -0.5033  -13.9922   25.6710 F   0  0  0  0  0  0  0  0  0  0  0  0
    2.5005  -13.6387   25.7925 C   0  0  0  0  0  0  0  0  0  0  0  0
    2.0822  -12.7617   24.8656 F   0  0  0  0  0  0  0  0  0  0  0  0
  1  2  2  0
  2  3  1  0
  3  4  1  0
  4  5  1  0
  5  6  1  0
  6  7  2  0
  7  8  1  0
  8  9  1  0
  2 10  1  0
 10 11  2  0
 11 12  1  0
 12 13  2  0
 13 14  1  0
 14 15  1  0
 15 16  1  0
 15 17  1  0
 15 18  1  0
 14 19  2  0
 19 20  1  0
  9  5  2  0
 19 10  1  0
M  END
>  <inchikey>  (1498) 
CKIBXRMIOPDESE-UHFFFAOYSA-N

>  <tags>  (1498) 
fragmenstein_placed,CpKRS_FrAncestor_bulkdock_iter2

>  <ref_pdb>  (1498) 
x0654b

>  <energy_score>  (1498) 
-2.979258

>  <distance_score>  (1498) 
0.486111

>  <HIPPO Pose ID>  (1498) 
60862

>  <ref_mols>  (1498) 
x0426a

>  <smiles>  (1498) 
O=C(NCc1cnoc1)c1cccc(C(F)(F)F)c1F

>  <HIPPO Compound ID>  (1498) 
453090

>  <alias>  (1498) 
CKIBXRMIOPDESE-UHFFFAOYSA-N-P16

>  <subsites>  (1498) 


>  <placement_batch>  (1498) 
CpKRS_FrAncestor_bulkdock_iter2

>  <name>  (1498) 
CKIBXRMIOPDESE-UHFFFAOYSA-N-P16

$$$$
RLWNKTWIIGIYEF-UHFFFAOYSA-N-P16
     RDKit          3D

 19 20  0  0  0  0  0  0  0  0999 V2000
    5.9414  -13.5431   25.1298 O   0  0  0  0  0  0  0  0  0  0  0  0
    4.8379  -13.5907   24.7631 C   0  0  0  0  0  0  0  0  0  0  0  0
    4.1995  -13.0912   23.4566 N   0  0  0  0  0  0  0  0  0  0  0  0
    4.7978  -12.5147   22.2890 C   0  0  0  0  0  0  0  0  0  0  0  0
    4.9545  -11.0514   22.4538 C   0  0  0  0  0  0  0  0  0  0  0  0
    4.9718  -10.0683   21.4415 C   0  0  0  0  0  0  0  0  0  0  0  0
    5.1045   -8.8303   21.9210 N   0  0  0  0  0  0  0  0  0  0  0  0
    5.2377   -8.9909   23.2890 O   0  0  0  0  0  0  0  0  0  0  0  0
    5.1556  -10.3080   23.5913 C   0  0  0  0  0  0  0  0  0  0  0  0
    3.8138  -14.1272   25.7165 C   0  0  0  0  0  0  0  0  0  0  0  0
    4.1879  -15.0955   26.6549 C   0  0  0  0  0  0  0  0  0  0  0  0
    3.2876  -15.5061   27.6412 C   0  0  0  0  0  0  0  0  0  0  0  0
    2.0073  -14.9518   27.6958 C   0  0  0  0  0  0  0  0  0  0  0  0
    1.6078  -14.0014   26.7481 C   0  0  0  0  0  0  0  0  0  0  0  0
    0.2183  -13.4384   26.7045 C   0  0  0  0  0  0  0  0  0  0  0  0
    0.1963  -12.0969   26.4551 F   0  0  0  0  0  0  0  0  0  0  0  0
   -0.4943  -13.6021   27.8527 F   0  0  0  0  0  0  0  0  0  0  0  0
   -0.5368  -14.0135   25.7266 F   0  0  0  0  0  0  0  0  0  0  0  0
    2.5270  -13.5808   25.7754 C   0  0  0  0  0  0  0  0  0  0  0  0
  1  2  2  0
  2  3  1  0
  3  4  1  0
  4  5  1  0
  5  6  1  0
  6  7  2  0
  7  8  1  0
  8  9  1  0
  2 10  1  0
 10 11  2  0
 11 12  1  0
 12 13  2  0
 13 14  1  0
 14 15  1  0
 15 16  1  0
 15 17  1  0
 15 18  1  0
 14 19  2  0
  9  5  2  0
 19 10  1  0
M  END
>  <inchikey>  (1499) 
RLWNKTWIIGIYEF-UHFFFAOYSA-N

>  <tags>  (1499) 
fragmenstein_placed,CpKRS_FrAncestor_bulkdock_iter2

>  <ref_pdb>  (1499) 
x0654b

>  <energy_score>  (1499) 
-2.186043

>  <distance_score>  (1499) 
0.533429

>  <HIPPO Pose ID>  (1499) 
60864

>  <ref_mols>  (1499) 
x0426a

>  <smiles>  (1499) 
O=C(NCc1cnoc1)c1cccc(C(F)(F)F)c1

>  <HIPPO Compound ID>  (1499) 
414373

>  <alias>  (1499) 
RLWNKTWIIGIYEF-UHFFFAOYSA-N-P16

>  <subsites>  (1499) 


>  <placement_batch>  (1499) 
CpKRS_FrAncestor_bulkdock_iter2

>  <name>  (1499) 
RLWNKTWIIGIYEF-UHFFFAOYSA-N-P16

$$$$
MIHHVWAVLSJZLH-UHFFFAOYSA-N-P16
     RDKit          3D

 16 17  0  0  0  0  0  0  0  0999 V2000
    5.9077  -13.5933   25.1423 O   0  0  0  0  0  0  0  0  0  0  0  0
    4.7970  -13.6371   24.7964 C   0  0  0  0  0  0  0  0  0  0  0  0
    4.1340  -13.1245   23.5078 N   0  0  0  0  0  0  0  0  0  0  0  0
    4.7109  -12.5354   22.3330 C   0  0  0  0  0  0  0  0  0  0  0  0
    4.9164  -11.0674   22.5138 C   0  0  0  0  0  0  0  0  0  0  0  0
    4.9671  -10.1159   21.4465 C   0  0  0  0  0  0  0  0  0  0  0  0
    5.1354   -8.8335   21.7550 N   0  0  0  0  0  0  0  0  0  0  0  0
    5.3565   -8.7282   23.3913 S   0  0  0  0  0  0  0  0  0  0  0  0
    5.1414  -10.3913   23.6979 C   0  0  0  0  0  0  0  0  0  0  0  0
    3.7973  -14.1854   25.7721 C   0  0  0  0  0  0  0  0  0  0  0  0
    4.2289  -15.1418   26.7035 C   0  0  0  0  0  0  0  0  0  0  0  0
    3.3758  -15.5789   27.7190 C   0  0  0  0  0  0  0  0  0  0  0  0
    2.0834  -15.0663   27.8088 C   0  0  0  0  0  0  0  0  0  0  0  0
    1.6415  -14.1446   26.8625 C   0  0  0  0  0  0  0  0  0  0  0  0
   -0.1397  -13.5178   26.9051 Br  0  0  0  0  0  0  0  0  0  0  0  0
    2.4938  -13.6827   25.8606 C   0  0  0  0  0  0  0  0  0  0  0  0
  1  2  2  0
  2  3  1  0
  3  4  1  0
  4  5  1  0
  5  6  1  0
  6  7  2  0
  7  8  1  0
  8  9  1  0
  2 10  1  0
 10 11  2  0
 11 12  1  0
 12 13  2  0
 13 14  1  0
 14 15  1  0
 14 16  2  0
  9  5  2  0
 16 10  1  0
M  END
>  <inchikey>  (1500) 
MIHHVWAVLSJZLH-UHFFFAOYSA-N

>  <tags>  (1500) 
fragmenstein_placed,CpKRS_FrAncestor_bulkdock_iter2

>  <ref_pdb>  (1500) 
x0654b

>  <energy_score>  (1500) 
-6.805359

>  <distance_score>  (1500) 
0.502262

>  <HIPPO Pose ID>  (1500) 
60886

>  <ref_mols>  (1500) 
x0426a

>  <smiles>  (1500) 
O=C(NCc1cnsc1)c1cccc(Br)c1

>  <HIPPO Compound ID>  (1500) 
453100

>  <alias>  (1500) 
MIHHVWAVLSJZLH-UHFFFAOYSA-N-P16

>  <subsites>  (1500) 


>  <placement_batch>  (1500) 
CpKRS_FrAncestor_bulkdock_iter2

>  <name>  (1500) 
MIHHVWAVLSJZLH-UHFFFAOYSA-N-P16

$$$$
FKGQHRBESMUROE-UHFFFAOYSA-N-P16
     RDKit          3D

 16 17  0  0  0  0  0  0  0  0999 V2000
    5.8197  -14.0754   25.0096 O   0  0  0  0  0  0  0  0  0  0  0  0
    4.7049  -13.7845   24.8366 C   0  0  0  0  0  0  0  0  0  0  0  0
    4.0286  -13.0970   23.6388 N   0  0  0  0  0  0  0  0  0  0  0  0
    4.5935  -12.5379   22.4432 C   0  0  0  0  0  0  0  0  0  0  0  0
    4.8442  -11.0750   22.5848 C   0  0  0  0  0  0  0  0  0  0  0  0
    4.9636  -10.1613   21.4901 C   0  0  0  0  0  0  0  0  0  0  0  0
    5.1685   -8.8763   21.7647 N   0  0  0  0  0  0  0  0  0  0  0  0
    5.3390   -8.7271   23.4038 S   0  0  0  0  0  0  0  0  0  0  0  0
    5.0523  -10.3706   23.7541 C   0  0  0  0  0  0  0  0  0  0  0  0
    3.7260  -14.1851   25.9031 C   0  0  0  0  0  0  0  0  0  0  0  0
    4.0898  -15.2281   26.7726 C   0  0  0  0  0  0  0  0  0  0  0  0
    3.2499  -15.6125   27.8220 C   0  0  0  0  0  0  0  0  0  0  0  0
    2.0393  -14.9533   28.0227 C   0  0  0  0  0  0  0  0  0  0  0  0
    1.6576  -13.9303   27.1569 C   0  0  0  0  0  0  0  0  0  0  0  0
    2.4996  -13.5517   26.1088 C   0  0  0  0  0  0  0  0  0  0  0  0
    2.0995  -12.5374   25.3244 F   0  0  0  0  0  0  0  0  0  0  0  0
  1  2  2  0
  2  3  1  0
  3  4  1  0
  4  5  1  0
  5  6  1  0
  6  7  2  0
  7  8  1  0
  8  9  1  0
  2 10  1  0
 10 11  2  0
 11 12  1  0
 12 13  2  0
 13 14  1  0
 14 15  2  0
 15 16  1  0
  9  5  2  0
 15 10  1  0
M  END
>  <inchikey>  (1501) 
FKGQHRBESMUROE-UHFFFAOYSA-N

>  <tags>  (1501) 
fragmenstein_placed,CpKRS_FrAncestor_bulkdock_iter2

>  <ref_pdb>  (1501) 
x0654b

>  <energy_score>  (1501) 
-8.14328

>  <distance_score>  (1501) 
0.37928

>  <HIPPO Pose ID>  (1501) 
60888

>  <ref_mols>  (1501) 
x0426a

>  <smiles>  (1501) 
O=C(NCc1cnsc1)c1ccccc1F

>  <HIPPO Compound ID>  (1501) 
453101

>  <alias>  (1501) 
FKGQHRBESMUROE-UHFFFAOYSA-N-P16

>  <subsites>  (1501) 


>  <placement_batch>  (1501) 
CpKRS_FrAncestor_bulkdock_iter2

>  <name>  (1501) 
FKGQHRBESMUROE-UHFFFAOYSA-N-P16

$$$$
XNKGEBUUHOFXOT-UHFFFAOYSA-N-P16
     RDKit          3D

 17 18  0  0  0  0  0  0  0  0999 V2000
    5.8703  -13.9642   25.0392 O   0  0  0  0  0  0  0  0  0  0  0  0
    4.7459  -13.7436   24.8294 C   0  0  0  0  0  0  0  0  0  0  0  0
    4.0755  -13.0228   23.6485 N   0  0  0  0  0  0  0  0  0  0  0  0
    4.6352  -12.5054   22.4329 C   0  0  0  0  0  0  0  0  0  0  0  0
    4.8879  -11.0399   22.5531 C   0  0  0  0  0  0  0  0  0  0  0  0
    4.9738  -10.1330   21.4508 C   0  0  0  0  0  0  0  0  0  0  0  0
    5.1797   -8.8455   21.7118 N   0  0  0  0  0  0  0  0  0  0  0  0
    5.3880   -8.6830   23.3448 S   0  0  0  0  0  0  0  0  0  0  0  0
    5.1246  -10.3261   23.7125 C   0  0  0  0  0  0  0  0  0  0  0  0
    3.7657  -14.2042   25.8725 C   0  0  0  0  0  0  0  0  0  0  0  0
    4.2008  -15.1660   26.8035 C   0  0  0  0  0  0  0  0  0  0  0  0
    3.3710  -15.5881   27.8460 C   0  0  0  0  0  0  0  0  0  0  0  0
    2.0902  -15.0576   27.9708 C   0  0  0  0  0  0  0  0  0  0  0  0
    1.6364  -14.1329   27.0325 C   0  0  0  0  0  0  0  0  0  0  0  0
    0.0192  -13.5451   27.1376 Cl  0  0  0  0  0  0  0  0  0  0  0  0
    2.4717  -13.6984   26.0001 C   0  0  0  0  0  0  0  0  0  0  0  0
    2.0083  -12.7732   25.1415 F   0  0  0  0  0  0  0  0  0  0  0  0
  1  2  2  0
  2  3  1  0
  3  4  1  0
  4  5  1  0
  5  6  1  0
  6  7  2  0
  7  8  1  0
  8  9  1  0
  2 10  1  0
 10 11  2  0
 11 12  1  0
 12 13  2  0
 13 14  1  0
 14 15  1  0
 14 16  2  0
 16 17  1  0
  9  5  2  0
 16 10  1  0
M  END
>  <inchikey>  (1502) 
XNKGEBUUHOFXOT-UHFFFAOYSA-N

>  <tags>  (1502) 
fragmenstein_placed,CpKRS_FrAncestor_bulkdock_iter2

>  <ref_pdb>  (1502) 
x0654b

>  <energy_score>  (1502) 
-4.911519

>  <distance_score>  (1502) 
0.421766

>  <HIPPO Pose ID>  (1502) 
60890

>  <ref_mols>  (1502) 
x0426a

>  <smiles>  (1502) 
O=C(NCc1cnsc1)c1cccc(Cl)c1F

>  <HIPPO Compound ID>  (1502) 
453102

>  <alias>  (1502) 
XNKGEBUUHOFXOT-UHFFFAOYSA-N-P16

>  <subsites>  (1502) 


>  <placement_batch>  (1502) 
CpKRS_FrAncestor_bulkdock_iter2

>  <name>  (1502) 
XNKGEBUUHOFXOT-UHFFFAOYSA-N-P16

$$$$
QOENFJHKMYHKST-UHFFFAOYSA-N-P16
     RDKit          3D

 16 17  0  0  0  0  0  0  0  0999 V2000
    5.8853  -13.6448   25.1533 O   0  0  0  0  0  0  0  0  0  0  0  0
    4.7678  -13.6633   24.8280 C   0  0  0  0  0  0  0  0  0  0  0  0
    4.0927  -13.1336   23.5532 N   0  0  0  0  0  0  0  0  0  0  0  0
    4.6609  -12.5548   22.3681 C   0  0  0  0  0  0  0  0  0  0  0  0
    4.8848  -11.0880   22.5362 C   0  0  0  0  0  0  0  0  0  0  0  0
    4.9619  -10.1481   21.4599 C   0  0  0  0  0  0  0  0  0  0  0  0
    5.1449   -8.8650   21.7574 N   0  0  0  0  0  0  0  0  0  0  0  0
    5.3498   -8.7464   23.3949 S   0  0  0  0  0  0  0  0  0  0  0  0
    5.1071  -10.4031   23.7156 C   0  0  0  0  0  0  0  0  0  0  0  0
    3.7750  -14.1969   25.8197 C   0  0  0  0  0  0  0  0  0  0  0  0
    4.2053  -15.1812   26.7230 C   0  0  0  0  0  0  0  0  0  0  0  0
    3.3671  -15.6177   27.7508 C   0  0  0  0  0  0  0  0  0  0  0  0
    2.0919  -15.0731   27.8835 C   0  0  0  0  0  0  0  0  0  0  0  0
    1.6504  -14.1187   26.9694 C   0  0  0  0  0  0  0  0  0  0  0  0
    0.0494  -13.4959   27.0879 Cl  0  0  0  0  0  0  0  0  0  0  0  0
    2.4866  -13.6633   25.9497 C   0  0  0  0  0  0  0  0  0  0  0  0
  1  2  2  0
  2  3  1  0
  3  4  1  0
  4  5  1  0
  5  6  1  0
  6  7  2  0
  7  8  1  0
  8  9  1  0
  2 10  1  0
 10 11  2  0
 11 12  1  0
 12 13  2  0
 13 14  1  0
 14 15  1  0
 14 16  2  0
  9  5  2  0
 16 10  1  0
M  END
>  <inchikey>  (1503) 
QOENFJHKMYHKST-UHFFFAOYSA-N

>  <tags>  (1503) 
fragmenstein_placed,CpKRS_FrAncestor_bulkdock_iter2

>  <ref_pdb>  (1503) 
x0654b

>  <energy_score>  (1503) 
-1.381555

>  <distance_score>  (1503) 
0.462153

>  <HIPPO Pose ID>  (1503) 
60892

>  <ref_mols>  (1503) 
x0426a

>  <smiles>  (1503) 
O=C(NCc1cnsc1)c1cccc(Cl)c1

>  <HIPPO Compound ID>  (1503) 
453103

>  <alias>  (1503) 
QOENFJHKMYHKST-UHFFFAOYSA-N-P16

>  <subsites>  (1503) 


>  <placement_batch>  (1503) 
CpKRS_FrAncestor_bulkdock_iter2

>  <name>  (1503) 
QOENFJHKMYHKST-UHFFFAOYSA-N-P16

$$$$
HYUGUKPBYBCCEY-UHFFFAOYSA-N-P16
     RDKit          3D

 17 18  0  0  0  0  0  0  0  0999 V2000
    5.7760  -14.0698   25.0547 O   0  0  0  0  0  0  0  0  0  0  0  0
    4.6628  -13.7760   24.8771 C   0  0  0  0  0  0  0  0  0  0  0  0
    4.0081  -13.0068   23.7184 N   0  0  0  0  0  0  0  0  0  0  0  0
    4.5667  -12.5190   22.4890 C   0  0  0  0  0  0  0  0  0  0  0  0
    4.8485  -11.0564   22.5819 C   0  0  0  0  0  0  0  0  0  0  0  0
    4.9698  -10.1749   21.4624 C   0  0  0  0  0  0  0  0  0  0  0  0
    5.1976   -8.8863   21.6993 N   0  0  0  0  0  0  0  0  0  0  0  0
    5.3859   -8.6934   23.3314 S   0  0  0  0  0  0  0  0  0  0  0  0
    5.0841  -10.3231   23.7290 C   0  0  0  0  0  0  0  0  0  0  0  0
    3.6803  -14.1893   25.9373 C   0  0  0  0  0  0  0  0  0  0  0  0
    4.0598  -15.2219   26.8169 C   0  0  0  0  0  0  0  0  0  0  0  0
    3.2298  -15.6123   27.8731 C   0  0  0  0  0  0  0  0  0  0  0  0
    2.0102  -14.9705   28.0684 C   0  0  0  0  0  0  0  0  0  0  0  0
    1.6204  -13.9661   27.1899 C   0  0  0  0  0  0  0  0  0  0  0  0
    0.4338  -13.3640   27.3706 F   0  0  0  0  0  0  0  0  0  0  0  0
    2.4444  -13.5734   26.1355 C   0  0  0  0  0  0  0  0  0  0  0  0
    2.0260  -12.5757   25.3388 F   0  0  0  0  0  0  0  0  0  0  0  0
  1  2  2  0
  2  3  1  0
  3  4  1  0
  4  5  1  0
  5  6  1  0
  6  7  2  0
  7  8  1  0
  8  9  1  0
  2 10  1  0
 10 11  2  0
 11 12  1  0
 12 13  2  0
 13 14  1  0
 14 15  1  0
 14 16  2  0
 16 17  1  0
  9  5  2  0
 16 10  1  0
M  END
>  <inchikey>  (1504) 
HYUGUKPBYBCCEY-UHFFFAOYSA-N

>  <tags>  (1504) 
fragmenstein_placed,CpKRS_FrAncestor_bulkdock_iter2

>  <ref_pdb>  (1504) 
x0654b

>  <energy_score>  (1504) 
-3.933448

>  <distance_score>  (1504) 
0.354409

>  <HIPPO Pose ID>  (1504) 
60894

>  <ref_mols>  (1504) 
x0426a

>  <smiles>  (1504) 
O=C(NCc1cnsc1)c1cccc(F)c1F

>  <HIPPO Compound ID>  (1504) 
453104

>  <alias>  (1504) 
HYUGUKPBYBCCEY-UHFFFAOYSA-N-P16

>  <subsites>  (1504) 


>  <placement_batch>  (1504) 
CpKRS_FrAncestor_bulkdock_iter2

>  <name>  (1504) 
HYUGUKPBYBCCEY-UHFFFAOYSA-N-P16

$$$$
KHOJXEWLZZRUPE-UHFFFAOYSA-N-P16
     RDKit          3D

 16 17  0  0  0  0  0  0  0  0999 V2000
    5.8214  -13.7684   25.1562 O   0  0  0  0  0  0  0  0  0  0  0  0
    4.6971  -13.6956   24.8636 C   0  0  0  0  0  0  0  0  0  0  0  0
    4.0299  -13.1038   23.6124 N   0  0  0  0  0  0  0  0  0  0  0  0
    4.6082  -12.5617   22.4142 C   0  0  0  0  0  0  0  0  0  0  0  0
    4.8598  -11.0967   22.5570 C   0  0  0  0  0  0  0  0  0  0  0  0
    4.9584  -10.1751   21.4670 C   0  0  0  0  0  0  0  0  0  0  0  0
    5.1621   -8.8909   21.7459 N   0  0  0  0  0  0  0  0  0  0  0  0
    5.3634   -8.7509   23.3821 S   0  0  0  0  0  0  0  0  0  0  0  0
    5.0926  -10.3984   23.7264 C   0  0  0  0  0  0  0  0  0  0  0  0
    3.6897  -14.1731   25.8685 C   0  0  0  0  0  0  0  0  0  0  0  0
    4.0488  -15.2340   26.7154 C   0  0  0  0  0  0  0  0  0  0  0  0
    3.2011  -15.6340   27.7518 C   0  0  0  0  0  0  0  0  0  0  0  0
    1.9951  -14.9670   27.9552 C   0  0  0  0  0  0  0  0  0  0  0  0
    1.6337  -13.9279   27.1050 C   0  0  0  0  0  0  0  0  0  0  0  0
    0.4696  -13.2903   27.3014 F   0  0  0  0  0  0  0  0  0  0  0  0
    2.4673  -13.5198   26.0670 C   0  0  0  0  0  0  0  0  0  0  0  0
  1  2  2  0
  2  3  1  0
  3  4  1  0
  4  5  1  0
  5  6  1  0
  6  7  2  0
  7  8  1  0
  8  9  1  0
  2 10  1  0
 10 11  2  0
 11 12  1  0
 12 13  2  0
 13 14  1  0
 14 15  1  0
 14 16  2  0
  9  5  2  0
 16 10  1  0
M  END
>  <inchikey>  (1505) 
KHOJXEWLZZRUPE-UHFFFAOYSA-N

>  <tags>  (1505) 
fragmenstein_placed,CpKRS_FrAncestor_bulkdock_iter2

>  <ref_pdb>  (1505) 
x0654b

>  <energy_score>  (1505) 
-3.42754

>  <distance_score>  (1505) 
0.396745

>  <HIPPO Pose ID>  (1505) 
60896

>  <ref_mols>  (1505) 
x0426a

>  <smiles>  (1505) 
O=C(NCc1cnsc1)c1cccc(F)c1

>  <HIPPO Compound ID>  (1505) 
453105

>  <alias>  (1505) 
KHOJXEWLZZRUPE-UHFFFAOYSA-N-P16

>  <subsites>  (1505) 


>  <placement_batch>  (1505) 
CpKRS_FrAncestor_bulkdock_iter2

>  <name>  (1505) 
KHOJXEWLZZRUPE-UHFFFAOYSA-N-P16

$$$$
SXUPTNFZZYLKHF-UHFFFAOYSA-N-P16
     RDKit          3D

 17 18  0  0  0  0  0  0  0  0999 V2000
    5.6533  -14.0849   25.0878 O   0  0  0  0  0  0  0  0  0  0  0  0
    4.5611  -13.7498   24.8598 C   0  0  0  0  0  0  0  0  0  0  0  0
    3.9881  -12.9624   23.6695 N   0  0  0  0  0  0  0  0  0  0  0  0
    4.6186  -12.5036   22.4647 C   0  0  0  0  0  0  0  0  0  0  0  0
    4.8916  -11.0393   22.5582 C   0  0  0  0  0  0  0  0  0  0  0  0
    4.9754  -10.1466   21.4448 C   0  0  0  0  0  0  0  0  0  0  0  0
    5.1925   -8.8576   21.6892 N   0  0  0  0  0  0  0  0  0  0  0  0
    5.4184   -8.6774   23.3180 S   0  0  0  0  0  0  0  0  0  0  0  0
    5.1492  -10.3146   23.7066 C   0  0  0  0  0  0  0  0  0  0  0  0
    3.5203  -14.0863   25.8944 C   0  0  0  0  0  0  0  0  0  0  0  0
    3.8356  -15.0590   26.8608 C   0  0  0  0  0  0  0  0  0  0  0  0
    2.9371  -15.3454   27.8903 C   0  0  0  0  0  0  0  0  0  0  0  0
    3.3295  -16.4957   29.1018 Cl  0  0  0  0  0  0  0  0  0  0  0  0
    1.7139  -14.6845   27.9718 C   0  0  0  0  0  0  0  0  0  0  0  0
    1.3819  -13.7369   27.0099 C   0  0  0  0  0  0  0  0  0  0  0  0
    2.2848  -13.4384   25.9888 C   0  0  0  0  0  0  0  0  0  0  0  0
    1.9268  -12.4815   25.1182 F   0  0  0  0  0  0  0  0  0  0  0  0
  1  2  2  0
  2  3  1  0
  3  4  1  0
  4  5  1  0
  5  6  1  0
  6  7  2  0
  7  8  1  0
  8  9  1  0
  2 10  1  0
 10 11  2  0
 11 12  1  0
 12 13  1  0
 12 14  2  0
 14 15  1  0
 15 16  2  0
 16 17  1  0
  9  5  2  0
 16 10  1  0
M  END
>  <inchikey>  (1506) 
SXUPTNFZZYLKHF-UHFFFAOYSA-N

>  <tags>  (1506) 
fragmenstein_placed,CpKRS_FrAncestor_bulkdock_iter2

>  <ref_pdb>  (1506) 
x0654b

>  <energy_score>  (1506) 
-7.001263

>  <distance_score>  (1506) 
0.393495

>  <HIPPO Pose ID>  (1506) 
60898

>  <ref_mols>  (1506) 
x0426a

>  <smiles>  (1506) 
O=C(NCc1cnsc1)c1cc(Cl)ccc1F

>  <HIPPO Compound ID>  (1506) 
453106

>  <alias>  (1506) 
SXUPTNFZZYLKHF-UHFFFAOYSA-N-P16

>  <subsites>  (1506) 


>  <placement_batch>  (1506) 
CpKRS_FrAncestor_bulkdock_iter2

>  <name>  (1506) 
SXUPTNFZZYLKHF-UHFFFAOYSA-N-P16

$$$$
XUZCWUBQHOCBND-UHFFFAOYSA-N-P64
     RDKit          3D

 15 16  0  0  0  0  0  0  0  0999 V2000
    5.6682  -13.9963   24.5651 O   0  0  0  0  0  0  0  0  0  0  0  0
    4.6448  -13.4629   24.4212 C   0  0  0  0  0  0  0  0  0  0  0  0
    4.2188  -12.3831   23.4189 N   0  0  0  0  0  0  0  0  0  0  0  0
    4.9319  -11.7975   22.3202 C   0  0  0  0  0  0  0  0  0  0  0  0
    5.1423  -10.3443   22.5779 C   0  0  0  0  0  0  0  0  0  0  0  0
    5.0084   -9.3001   21.6095 C   0  0  0  0  0  0  0  0  0  0  0  0
    5.1834   -8.0447   22.0159 N   0  0  0  0  0  0  0  0  0  0  0  0
    5.6598   -8.0833   23.6062 S   0  0  0  0  0  0  0  0  0  0  0  0
    5.5495   -9.7753   23.7699 C   0  0  0  0  0  0  0  0  0  0  0  0
    3.5403  -13.8159   25.3062 C   0  0  0  0  0  0  0  0  0  0  0  0
    2.1761  -13.5733   25.2614 C   0  0  0  0  0  0  0  0  0  0  0  0
    1.5959  -14.2278   26.3644 C   0  0  0  0  0  0  0  0  0  0  0  0
   -0.2442  -14.2591   26.6882 Br  0  0  0  0  0  0  0  0  0  0  0  0
    2.5841  -14.8385   27.0872 C   0  0  0  0  0  0  0  0  0  0  0  0
    3.7645  -14.5786   26.4412 N   0  0  0  0  0  0  0  0  0  0  0  0
  1  2  2  0
  2  3  1  0
  3  4  1  0
  4  5  1  0
  5  6  1  0
  6  7  2  0
  7  8  1  0
  8  9  1  0
  2 10  1  0
 10 11  2  0
 11 12  1  0
 12 13  1  0
 12 14  2  0
 14 15  1  0
  9  5  2  0
 15 10  1  0
M  END
>  <inchikey>  (1507) 
XUZCWUBQHOCBND-UHFFFAOYSA-N

>  <tags>  (1507) 
fragmenstein_placed,CpKRS_FrAncestor_bulkdock_iter2

>  <ref_pdb>  (1507) 
x0654b

>  <energy_score>  (1507) 
-6.381696

>  <distance_score>  (1507) 
0.483629

>  <HIPPO Pose ID>  (1507) 
60901

>  <ref_mols>  (1507) 
x0787b

>  <smiles>  (1507) 
O=C(NCc1cnsc1)c1cc(Br)c[nH]1

>  <HIPPO Compound ID>  (1507) 
453107

>  <alias>  (1507) 
XUZCWUBQHOCBND-UHFFFAOYSA-N-P64

>  <subsites>  (1507) 


>  <placement_batch>  (1507) 
CpKRS_FrAncestor_bulkdock_iter2

>  <name>  (1507) 
XUZCWUBQHOCBND-UHFFFAOYSA-N-P64

$$$$
GIZIXZDBIPFYMN-UHFFFAOYSA-N-P64
     RDKit          3D

 18 19  0  0  0  0  0  0  0  0999 V2000
    5.5170  -14.3076   24.3496 O   0  0  0  0  0  0  0  0  0  0  0  0
    4.5959  -13.5997   24.4066 C   0  0  0  0  0  0  0  0  0  0  0  0
    4.2291  -12.3757   23.5592 N   0  0  0  0  0  0  0  0  0  0  0  0
    4.8687  -11.8170   22.4000 C   0  0  0  0  0  0  0  0  0  0  0  0
    5.1064  -10.3599   22.6121 C   0  0  0  0  0  0  0  0  0  0  0  0
    4.9941   -9.3437   21.6112 C   0  0  0  0  0  0  0  0  0  0  0  0
    5.1856   -8.0791   21.9805 N   0  0  0  0  0  0  0  0  0  0  0  0
    5.6628   -8.0766   23.5704 S   0  0  0  0  0  0  0  0  0  0  0  0
    5.5274   -9.7608   23.7845 C   0  0  0  0  0  0  0  0  0  0  0  0
    3.5840  -13.8580   25.4335 C   0  0  0  0  0  0  0  0  0  0  0  0
    2.3770  -13.2650   25.7704 C   0  0  0  0  0  0  0  0  0  0  0  0
    1.8257  -13.9749   26.8687 C   0  0  0  0  0  0  0  0  0  0  0  0
    2.6995  -14.9924   27.1921 C   0  0  0  0  0  0  0  0  0  0  0  0
    2.6476  -16.0555   28.2230 C   0  0  0  0  0  0  0  0  0  0  0  0
    1.3919  -16.2397   28.7074 F   0  0  0  0  0  0  0  0  0  0  0  0
    3.4352  -15.7726   29.2889 F   0  0  0  0  0  0  0  0  0  0  0  0
    3.0728  -17.2408   27.7329 F   0  0  0  0  0  0  0  0  0  0  0  0
    3.7667  -14.8924   26.3347 N   0  0  0  0  0  0  0  0  0  0  0  0
  1  2  2  0
  2  3  1  0
  3  4  1  0
  4  5  1  0
  5  6  1  0
  6  7  2  0
  7  8  1  0
  8  9  1  0
  2 10  1  0
 10 11  2  0
 11 12  1  0
 12 13  2  0
 13 14  1  0
 14 15  1  0
 14 16  1  0
 14 17  1  0
 13 18  1  0
  9  5  2  0
 18 10  1  0
M  END
>  <inchikey>  (1508) 
GIZIXZDBIPFYMN-UHFFFAOYSA-N

>  <tags>  (1508) 
fragmenstein_placed,CpKRS_FrAncestor_bulkdock_iter2

>  <ref_pdb>  (1508) 
x0654b

>  <energy_score>  (1508) 
-13.933264

>  <distance_score>  (1508) 
0.359239

>  <HIPPO Pose ID>  (1508) 
60903

>  <ref_mols>  (1508) 
x0787b

>  <smiles>  (1508) 
O=C(NCc1cnsc1)c1ccc(C(F)(F)F)[nH]1

>  <HIPPO Compound ID>  (1508) 
338359

>  <alias>  (1508) 
GIZIXZDBIPFYMN-UHFFFAOYSA-N-P64

>  <subsites>  (1508) 


>  <placement_batch>  (1508) 
CpKRS_FrAncestor_bulkdock_iter2

>  <name>  (1508) 
GIZIXZDBIPFYMN-UHFFFAOYSA-N-P64

$$$$
FLBDJYGLCGCFCN-UHFFFAOYSA-N-P64
     RDKit          3D

 15 16  0  0  0  0  0  0  0  0999 V2000
    5.5141  -14.3017   24.3616 O   0  0  0  0  0  0  0  0  0  0  0  0
    4.5838  -13.6046   24.3990 C   0  0  0  0  0  0  0  0  0  0  0  0
    4.2188  -12.3869   23.5410 N   0  0  0  0  0  0  0  0  0  0  0  0
    4.8737  -11.8239   22.3929 C   0  0  0  0  0  0  0  0  0  0  0  0
    5.1128  -10.3676   22.6113 C   0  0  0  0  0  0  0  0  0  0  0  0
    4.9956   -9.3472   21.6149 C   0  0  0  0  0  0  0  0  0  0  0  0
    5.1864   -8.0839   21.9887 N   0  0  0  0  0  0  0  0  0  0  0  0
    5.6686   -8.0873   23.5772 S   0  0  0  0  0  0  0  0  0  0  0  0
    5.5373   -9.7730   23.7845 C   0  0  0  0  0  0  0  0  0  0  0  0
    3.5603  -13.8600   25.4125 C   0  0  0  0  0  0  0  0  0  0  0  0
    2.2985  -13.3300   25.6621 C   0  0  0  0  0  0  0  0  0  0  0  0
    1.7481  -13.9924   26.7932 C   0  0  0  0  0  0  0  0  0  0  0  0
    2.6811  -14.9057   27.1936 C   0  0  0  0  0  0  0  0  0  0  0  0
    2.6860  -16.0396   28.4556 Cl  0  0  0  0  0  0  0  0  0  0  0  0
    3.7694  -14.8259   26.3858 N   0  0  0  0  0  0  0  0  0  0  0  0
  1  2  2  0
  2  3  1  0
  3  4  1  0
  4  5  1  0
  5  6  1  0
  6  7  2  0
  7  8  1  0
  8  9  1  0
  2 10  1  0
 10 11  2  0
 11 12  1  0
 12 13  2  0
 13 14  1  0
 13 15  1  0
  9  5  2  0
 15 10  1  0
M  END
>  <inchikey>  (1509) 
FLBDJYGLCGCFCN-UHFFFAOYSA-N

>  <tags>  (1509) 
fragmenstein_placed,CpKRS_FrAncestor_bulkdock_iter2

>  <ref_pdb>  (1509) 
x0654b

>  <energy_score>  (1509) 
-11.540033

>  <distance_score>  (1509) 
0.367279

>  <HIPPO Pose ID>  (1509) 
60905

>  <ref_mols>  (1509) 
x0787b

>  <smiles>  (1509) 
O=C(NCc1cnsc1)c1ccc(Cl)[nH]1

>  <HIPPO Compound ID>  (1509) 
453108

>  <alias>  (1509) 
FLBDJYGLCGCFCN-UHFFFAOYSA-N-P64

>  <subsites>  (1509) 


>  <placement_batch>  (1509) 
CpKRS_FrAncestor_bulkdock_iter2

>  <name>  (1509) 
FLBDJYGLCGCFCN-UHFFFAOYSA-N-P64

$$$$
UNLFHXKLQSWWNB-UHFFFAOYSA-N-P64
     RDKit          3D

 18 19  0  0  0  0  0  0  0  0999 V2000
    5.6974  -14.3844   24.0549 O   0  0  0  0  0  0  0  0  0  0  0  0
    4.7676  -13.6959   24.1711 C   0  0  0  0  0  0  0  0  0  0  0  0
    4.3691  -12.4274   23.4085 N   0  0  0  0  0  0  0  0  0  0  0  0
    4.9795  -11.7887   22.2789 C   0  0  0  0  0  0  0  0  0  0  0  0
    5.1702  -10.3369   22.5605 C   0  0  0  0  0  0  0  0  0  0  0  0
    5.0092   -9.2811   21.6087 C   0  0  0  0  0  0  0  0  0  0  0  0
    5.1691   -8.0292   22.0312 N   0  0  0  0  0  0  0  0  0  0  0  0
    5.6628   -8.0823   23.6156 S   0  0  0  0  0  0  0  0  0  0  0  0
    5.5814   -9.7783   23.7563 C   0  0  0  0  0  0  0  0  0  0  0  0
    3.7890  -14.0130   25.2065 C   0  0  0  0  0  0  0  0  0  0  0  0
    2.5292  -13.5250   25.5076 C   0  0  0  0  0  0  0  0  0  0  0  0
    2.0234  -14.2293   26.6429 C   0  0  0  0  0  0  0  0  0  0  0  0
    0.7175  -13.9934   27.2986 C   0  0  0  0  0  0  0  0  0  0  0  0
    0.1492  -12.8229   26.8962 F   0  0  0  0  0  0  0  0  0  0  0  0
   -0.2047  -14.9575   27.0371 F   0  0  0  0  0  0  0  0  0  0  0  0
    0.8146  -13.9204   28.6506 F   0  0  0  0  0  0  0  0  0  0  0  0
    2.9971  -15.1453   26.9950 C   0  0  0  0  0  0  0  0  0  0  0  0
    4.0519  -14.9992   26.1375 N   0  0  0  0  0  0  0  0  0  0  0  0
  1  2  2  0
  2  3  1  0
  3  4  1  0
  4  5  1  0
  5  6  1  0
  6  7  2  0
  7  8  1  0
  8  9  1  0
  2 10  1  0
 10 11  2  0
 11 12  1  0
 12 13  1  0
 13 14  1  0
 13 15  1  0
 13 16  1  0
 12 17  2  0
 17 18  1  0
  9  5  2  0
 18 10  1  0
M  END
>  <inchikey>  (1510) 
UNLFHXKLQSWWNB-UHFFFAOYSA-N

>  <tags>  (1510) 
fragmenstein_placed,CpKRS_FrAncestor_bulkdock_iter2

>  <ref_pdb>  (1510) 
x0654b

>  <energy_score>  (1510) 
-7.023164

>  <distance_score>  (1510) 
0.477033

>  <HIPPO Pose ID>  (1510) 
60907

>  <ref_mols>  (1510) 
x0787b

>  <smiles>  (1510) 
O=C(NCc1cnsc1)c1cc(C(F)(F)F)c[nH]1

>  <HIPPO Compound ID>  (1510) 
338362

>  <alias>  (1510) 
UNLFHXKLQSWWNB-UHFFFAOYSA-N-P64

>  <subsites>  (1510) 


>  <placement_batch>  (1510) 
CpKRS_FrAncestor_bulkdock_iter2

>  <name>  (1510) 
UNLFHXKLQSWWNB-UHFFFAOYSA-N-P64

$$$$
XZWHWRAIOVWSLR-UHFFFAOYSA-N-P64
     RDKit          3D

 16 17  0  0  0  0  0  0  0  0999 V2000
    5.6495  -14.1225   24.4909 O   0  0  0  0  0  0  0  0  0  0  0  0
    4.6460  -13.5417   24.4012 C   0  0  0  0  0  0  0  0  0  0  0  0
    4.1925  -12.4926   23.3780 N   0  0  0  0  0  0  0  0  0  0  0  0
    4.9110  -11.8649   22.3030 C   0  0  0  0  0  0  0  0  0  0  0  0
    5.1119  -10.4142   22.5841 C   0  0  0  0  0  0  0  0  0  0  0  0
    4.9960   -9.3598   21.6225 C   0  0  0  0  0  0  0  0  0  0  0  0
    5.1669   -8.1083   22.0422 N   0  0  0  0  0  0  0  0  0  0  0  0
    5.6272   -8.1624   23.6365 S   0  0  0  0  0  0  0  0  0  0  0  0
    5.5026   -9.8561   23.7859 C   0  0  0  0  0  0  0  0  0  0  0  0
    3.5819  -13.8507   25.3529 C   0  0  0  0  0  0  0  0  0  0  0  0
    2.2431  -13.4888   25.4478 C   0  0  0  0  0  0  0  0  0  0  0  0
    1.6742  -14.1756   26.5518 C   0  0  0  0  0  0  0  0  0  0  0  0
    0.0423  -14.0865   27.0013 Cl  0  0  0  0  0  0  0  0  0  0  0  0
    2.6762  -14.9130   27.1157 C   0  0  0  0  0  0  0  0  0  0  0  0
    2.7177  -15.9825   28.4347 Cl  0  0  0  0  0  0  0  0  0  0  0  0
    3.8245  -14.7079   26.4175 N   0  0  0  0  0  0  0  0  0  0  0  0
  1  2  2  0
  2  3  1  0
  3  4  1  0
  4  5  1  0
  5  6  1  0
  6  7  2  0
  7  8  1  0
  8  9  1  0
  2 10  1  0
 10 11  2  0
 11 12  1  0
 12 13  1  0
 12 14  2  0
 14 15  1  0
 14 16  1  0
  9  5  2  0
 16 10  1  0
M  END
>  <inchikey>  (1511) 
XZWHWRAIOVWSLR-UHFFFAOYSA-N

>  <tags>  (1511) 
fragmenstein_placed,CpKRS_FrAncestor_bulkdock_iter2

>  <ref_pdb>  (1511) 
x0654b

>  <energy_score>  (1511) 
-5.604311

>  <distance_score>  (1511) 
0.405964

>  <HIPPO Pose ID>  (1511) 
60909

>  <ref_mols>  (1511) 
x0787b

>  <smiles>  (1511) 
O=C(NCc1cnsc1)c1cc(Cl)c(Cl)[nH]1

>  <HIPPO Compound ID>  (1511) 
453109

>  <alias>  (1511) 
XZWHWRAIOVWSLR-UHFFFAOYSA-N-P64

>  <subsites>  (1511) 


>  <placement_batch>  (1511) 
CpKRS_FrAncestor_bulkdock_iter2

>  <name>  (1511) 
XZWHWRAIOVWSLR-UHFFFAOYSA-N-P64

$$$$
MMGOVEHHIKBNOA-UHFFFAOYSA-N-P64
     RDKit          3D

 15 16  0  0  0  0  0  0  0  0999 V2000
    5.6402  -14.0764   24.5058 O   0  0  0  0  0  0  0  0  0  0  0  0
    4.6334  -13.5040   24.3971 C   0  0  0  0  0  0  0  0  0  0  0  0
    4.1863  -12.4672   23.3588 N   0  0  0  0  0  0  0  0  0  0  0  0
    4.9139  -11.8440   22.2897 C   0  0  0  0  0  0  0  0  0  0  0  0
    5.1113  -10.3939   22.5738 C   0  0  0  0  0  0  0  0  0  0  0  0
    5.0004   -9.3376   21.6144 C   0  0  0  0  0  0  0  0  0  0  0  0
    5.1726   -8.0873   22.0372 N   0  0  0  0  0  0  0  0  0  0  0  0
    5.6219   -8.1457   23.6349 S   0  0  0  0  0  0  0  0  0  0  0  0
    5.4935   -9.8391   23.7801 C   0  0  0  0  0  0  0  0  0  0  0  0
    3.5572  -13.8160   25.3349 C   0  0  0  0  0  0  0  0  0  0  0  0
    2.2199  -13.4584   25.4209 C   0  0  0  0  0  0  0  0  0  0  0  0
    1.6547  -14.1407   26.5248 C   0  0  0  0  0  0  0  0  0  0  0  0
    0.0229  -14.0622   26.9768 Cl  0  0  0  0  0  0  0  0  0  0  0  0
    2.6486  -14.8752   27.1192 C   0  0  0  0  0  0  0  0  0  0  0  0
    3.7972  -14.6603   26.4069 N   0  0  0  0  0  0  0  0  0  0  0  0
  1  2  2  0
  2  3  1  0
  3  4  1  0
  4  5  1  0
  5  6  1  0
  6  7  2  0
  7  8  1  0
  8  9  1  0
  2 10  1  0
 10 11  2  0
 11 12  1  0
 12 13  1  0
 12 14  2  0
 14 15  1  0
  9  5  2  0
 15 10  1  0
M  END
>  <inchikey>  (1512) 
MMGOVEHHIKBNOA-UHFFFAOYSA-N

>  <tags>  (1512) 
fragmenstein_placed,CpKRS_FrAncestor_bulkdock_iter2

>  <ref_pdb>  (1512) 
x0654b

>  <energy_score>  (1512) 
-4.070499

>  <distance_score>  (1512) 
0.444498

>  <HIPPO Pose ID>  (1512) 
60911

>  <ref_mols>  (1512) 
x0787b

>  <smiles>  (1512) 
O=C(NCc1cnsc1)c1cc(Cl)c[nH]1

>  <HIPPO Compound ID>  (1512) 
453110

>  <alias>  (1512) 
MMGOVEHHIKBNOA-UHFFFAOYSA-N-P64

>  <subsites>  (1512) 


>  <placement_batch>  (1512) 
CpKRS_FrAncestor_bulkdock_iter2

>  <name>  (1512) 
MMGOVEHHIKBNOA-UHFFFAOYSA-N-P64

$$$$
JFRXERVGDMABIX-UHFFFAOYSA-N-P64
     RDKit          3D

 14 15  0  0  0  0  0  0  0  0999 V2000
    5.5107  -14.2828   24.3303 O   0  0  0  0  0  0  0  0  0  0  0  0
    4.5770  -13.5886   24.3465 C   0  0  0  0  0  0  0  0  0  0  0  0
    4.1768  -12.4383   23.4137 N   0  0  0  0  0  0  0  0  0  0  0  0
    4.8842  -11.8354   22.3200 C   0  0  0  0  0  0  0  0  0  0  0  0
    5.1027  -10.3845   22.5857 C   0  0  0  0  0  0  0  0  0  0  0  0
    4.9991   -9.3377   21.6155 C   0  0  0  0  0  0  0  0  0  0  0  0
    5.1834   -8.0846   22.0250 N   0  0  0  0  0  0  0  0  0  0  0  0
    5.6379   -8.1305   23.6216 S   0  0  0  0  0  0  0  0  0  0  0  0
    5.4968   -9.8210   23.7842 C   0  0  0  0  0  0  0  0  0  0  0  0
    3.5534  -13.8228   25.3664 C   0  0  0  0  0  0  0  0  0  0  0  0
    2.3401  -13.2242   25.6739 C   0  0  0  0  0  0  0  0  0  0  0  0
    1.7749  -13.9083   26.7816 C   0  0  0  0  0  0  0  0  0  0  0  0
    2.6483  -14.9073   27.1363 C   0  0  0  0  0  0  0  0  0  0  0  0
    3.7253  -14.8335   26.2963 N   0  0  0  0  0  0  0  0  0  0  0  0
  1  2  2  0
  2  3  1  0
  3  4  1  0
  4  5  1  0
  5  6  1  0
  6  7  2  0
  7  8  1  0
  8  9  1  0
  2 10  1  0
 10 11  2  0
 11 12  1  0
 12 13  2  0
 13 14  1  0
  9  5  2  0
 14 10  1  0
M  END
>  <inchikey>  (1513) 
JFRXERVGDMABIX-UHFFFAOYSA-N

>  <tags>  (1513) 
fragmenstein_placed,CpKRS_FrAncestor_bulkdock_iter2

>  <ref_pdb>  (1513) 
x0654b

>  <energy_score>  (1513) 
-13.399234

>  <distance_score>  (1513) 
0.405307

>  <HIPPO Pose ID>  (1513) 
60913

>  <ref_mols>  (1513) 
x0787b

>  <smiles>  (1513) 
O=C(NCc1cnsc1)c1ccc[nH]1

>  <HIPPO Compound ID>  (1513) 
279254

>  <alias>  (1513) 
JFRXERVGDMABIX-UHFFFAOYSA-N-P64

>  <subsites>  (1513) 


>  <placement_batch>  (1513) 
CpKRS_FrAncestor_bulkdock_iter2

>  <name>  (1513) 
JFRXERVGDMABIX-UHFFFAOYSA-N-P64

$$$$
HUJBGONZXFSVML-UHFFFAOYSA-N-P64
     RDKit          3D

 15 16  0  0  0  0  0  0  0  0999 V2000
    5.4711  -14.2356   24.4453 O   0  0  0  0  0  0  0  0  0  0  0  0
    4.5262  -13.5570   24.4436 C   0  0  0  0  0  0  0  0  0  0  0  0
    4.1592  -12.3662   23.5496 N   0  0  0  0  0  0  0  0  0  0  0  0
    4.8321  -11.8151   22.4061 C   0  0  0  0  0  0  0  0  0  0  0  0
    5.0890  -10.3615   22.6201 C   0  0  0  0  0  0  0  0  0  0  0  0
    4.9922   -9.3437   21.6189 C   0  0  0  0  0  0  0  0  0  0  0  0
    5.1989   -8.0817   21.9885 N   0  0  0  0  0  0  0  0  0  0  0  0
    5.6705   -8.0853   23.5802 S   0  0  0  0  0  0  0  0  0  0  0  0
    5.5145   -9.7682   23.7934 C   0  0  0  0  0  0  0  0  0  0  0  0
    3.4818  -13.8141   25.4359 C   0  0  0  0  0  0  0  0  0  0  0  0
    2.2035  -13.3106   25.6424 C   0  0  0  0  0  0  0  0  0  0  0  0
    1.6691  -13.9752   26.7628 C   0  0  0  0  0  0  0  0  0  0  0  0
    0.4499  -13.7745   27.2756 F   0  0  0  0  0  0  0  0  0  0  0  0
    2.5880  -14.8684   27.2371 C   0  0  0  0  0  0  0  0  0  0  0  0
    3.6922  -14.7556   26.4345 N   0  0  0  0  0  0  0  0  0  0  0  0
  1  2  2  0
  2  3  1  0
  3  4  1  0
  4  5  1  0
  5  6  1  0
  6  7  2  0
  7  8  1  0
  8  9  1  0
  2 10  1  0
 10 11  2  0
 11 12  1  0
 12 13  1  0
 12 14  2  0
 14 15  1  0
  9  5  2  0
 15 10  1  0
M  END
>  <inchikey>  (1514) 
HUJBGONZXFSVML-UHFFFAOYSA-N

>  <tags>  (1514) 
fragmenstein_placed,CpKRS_FrAncestor_bulkdock_iter2

>  <ref_pdb>  (1514) 
x0654b

>  <energy_score>  (1514) 
-11.694489

>  <distance_score>  (1514) 
0.404682

>  <HIPPO Pose ID>  (1514) 
60915

>  <ref_mols>  (1514) 
x0787b

>  <smiles>  (1514) 
O=C(NCc1cnsc1)c1cc(F)c[nH]1

>  <HIPPO Compound ID>  (1514) 
453111

>  <alias>  (1514) 
HUJBGONZXFSVML-UHFFFAOYSA-N-P64

>  <subsites>  (1514) 


>  <placement_batch>  (1514) 
CpKRS_FrAncestor_bulkdock_iter2

>  <name>  (1514) 
HUJBGONZXFSVML-UHFFFAOYSA-N-P64

$$$$
TYDIPVMSOBKAOT-UHFFFAOYSA-N-P15
     RDKit          3D

 16 17  0  0  0  0  0  0  0  0999 V2000
    2.1203  -26.3877   12.6377 O   0  0  0  0  0  0  0  0  0  0  0  0
    1.8276  -25.4236   13.2219 C   0  0  0  0  0  0  0  0  0  0  0  0
    1.6298  -25.1931   14.7286 N   0  0  0  0  0  0  0  0  0  0  0  0
    1.6574  -26.1179   15.8239 C   0  0  0  0  0  0  0  0  0  0  0  0
    2.4875  -25.5979   16.9518 C   0  0  0  0  0  0  0  0  0  0  0  0
    3.4608  -24.6158   16.8876 C   0  0  0  0  0  0  0  0  0  0  0  0
    4.2167  -24.3065   18.3846 S   0  0  0  0  0  0  0  0  0  0  0  0
    3.2612  -25.4719   19.1413 C   0  0  0  0  0  0  0  0  0  0  0  0
    3.3853  -25.8612   20.9926 Br  0  0  0  0  0  0  0  0  0  0  0  0
    2.3856  -26.0982   18.2948 C   0  0  0  0  0  0  0  0  0  0  0  0
    1.5794  -24.1869   12.4311 C   0  0  0  0  0  0  0  0  0  0  0  0
    0.6200  -23.2335   12.7737 C   0  0  0  0  0  0  0  0  0  0  0  0
    0.4335  -22.1272   11.9487 C   0  0  0  0  0  0  0  0  0  0  0  0
    1.2096  -22.0110   10.8086 C   0  0  0  0  0  0  0  0  0  0  0  0
    2.1508  -22.9133   10.4429 N   0  0  0  0  0  0  0  0  0  0  0  0
    2.2912  -23.9957   11.2521 C   0  0  0  0  0  0  0  0  0  0  0  0
  1  2  2  0
  2  3  1  0
  3  4  1  0
  4  5  1  0
  5  6  2  0
  6  7  1  0
  7  8  1  0
  8  9  1  0
  8 10  2  0
  2 11  1  0
 11 12  2  0
 12 13  1  0
 13 14  2  0
 14 15  1  0
 15 16  2  0
 10  5  1  0
 16 11  1  0
M  END
>  <inchikey>  (1515) 
TYDIPVMSOBKAOT-UHFFFAOYSA-N

>  <tags>  (1515) 
fragmenstein_placed,CpKRS_FrAncestor_bulkdock_iter2

>  <ref_pdb>  (1515) 
x0654b

>  <energy_score>  (1515) 
-6.472664

>  <distance_score>  (1515) 
0.416776

>  <HIPPO Pose ID>  (1515) 
60921

>  <ref_mols>  (1515) 
x0426b

>  <smiles>  (1515) 
O=C(NCc1csc(Br)c1)c1cccnc1

>  <HIPPO Compound ID>  (1515) 
453113

>  <alias>  (1515) 
TYDIPVMSOBKAOT-UHFFFAOYSA-N-P15

>  <subsites>  (1515) 


>  <placement_batch>  (1515) 
CpKRS_FrAncestor_bulkdock_iter2

>  <name>  (1515) 
TYDIPVMSOBKAOT-UHFFFAOYSA-N-P15

$$$$
WBCXBEITTSJJLY-UHFFFAOYSA-N-P55
     RDKit          3D

 15 16  0  0  0  0  0  0  0  0999 V2000
    5.7659  -14.0908   24.9571 O   0  0  0  0  0  0  0  0  0  0  0  0
    4.6381  -13.8080   24.8914 C   0  0  0  0  0  0  0  0  0  0  0  0
    3.8722  -13.0142   23.8250 N   0  0  0  0  0  0  0  0  0  0  0  0
    4.3081  -12.4820   22.5707 C   0  0  0  0  0  0  0  0  0  0  0  0
    4.6753  -11.0342   22.6623 C   0  0  0  0  0  0  0  0  0  0  0  0
    5.0036  -10.2480   21.5714 C   0  0  0  0  0  0  0  0  0  0  0  0
    5.3959   -8.6401   21.9880 S   0  0  0  0  0  0  0  0  0  0  0  0
    5.2068   -8.9787   23.6265 C   0  0  0  0  0  0  0  0  0  0  0  0
    5.5358   -7.6993   24.9934 Br  0  0  0  0  0  0  0  0  0  0  0  0
    4.7926  -10.2620   23.8612 C   0  0  0  0  0  0  0  0  0  0  0  0
    3.6818  -14.2635   25.9275 C   0  0  0  0  0  0  0  0  0  0  0  0
    3.9338  -15.2423   26.9256 C   0  0  0  0  0  0  0  0  0  0  0  0
    2.7538  -15.3768   27.6110 C   0  0  0  0  0  0  0  0  0  0  0  0
    1.8810  -14.5118   27.0229 N   0  0  0  0  0  0  0  0  0  0  0  0
    2.4166  -13.7921   26.0176 N   0  0  0  0  0  0  0  0  0  0  0  0
  1  2  2  0
  2  3  1  0
  3  4  1  0
  4  5  1  0
  5  6  2  0
  6  7  1  0
  7  8  1  0
  8  9  1  0
  8 10  2  0
  2 11  1  0
 11 12  1  0
 12 13  2  0
 13 14  1  0
 14 15  1  0
 10  5  1  0
 15 11  2  0
M  END
>  <inchikey>  (1516) 
WBCXBEITTSJJLY-UHFFFAOYSA-N

>  <tags>  (1516) 
fragmenstein_placed,CpKRS_FrAncestor_bulkdock_iter2

>  <ref_pdb>  (1516) 
x0654b

>  <energy_score>  (1516) 
-24.191594

>  <distance_score>  (1516) 
0.383891

>  <HIPPO Pose ID>  (1516) 
60922

>  <ref_mols>  (1516) 
x0646a

>  <smiles>  (1516) 
O=C(NCc1csc(Br)c1)c1cc[nH]n1

>  <HIPPO Compound ID>  (1516) 
453114

>  <alias>  (1516) 
WBCXBEITTSJJLY-UHFFFAOYSA-N-P55

>  <subsites>  (1516) 


>  <placement_batch>  (1516) 
CpKRS_FrAncestor_bulkdock_iter2

>  <name>  (1516) 
WBCXBEITTSJJLY-UHFFFAOYSA-N-P55

$$$$
KQTLQMBCXCWXHR-UHFFFAOYSA-N-P55
     RDKit          3D

 15 16  0  0  0  0  0  0  0  0999 V2000
    5.7670  -14.1571   25.0812 O   0  0  0  0  0  0  0  0  0  0  0  0
    4.6517  -13.8293   25.0237 C   0  0  0  0  0  0  0  0  0  0  0  0
    3.9138  -12.9957   23.9693 N   0  0  0  0  0  0  0  0  0  0  0  0
    4.3644  -12.4699   22.7200 C   0  0  0  0  0  0  0  0  0  0  0  0
    4.7083  -11.0139   22.7795 C   0  0  0  0  0  0  0  0  0  0  0  0
    5.0642  -10.2615   21.6724 C   0  0  0  0  0  0  0  0  0  0  0  0
    5.4327   -8.6590   22.1221 S   0  0  0  0  0  0  0  0  0  0  0  0
    5.1481   -9.0783   23.7448 C   0  0  0  0  0  0  0  0  0  0  0  0
    5.3965   -7.7989   25.1400 Br  0  0  0  0  0  0  0  0  0  0  0  0
    4.7203  -10.2979   23.9743 N   0  0  0  0  0  0  0  0  0  0  0  0
    3.7080  -14.3315   26.0483 C   0  0  0  0  0  0  0  0  0  0  0  0
    4.0002  -15.3734   26.9852 C   0  0  0  0  0  0  0  0  0  0  0  0
    2.8868  -15.5877   27.7628 C   0  0  0  0  0  0  0  0  0  0  0  0
    1.9197  -14.7127   27.3527 N   0  0  0  0  0  0  0  0  0  0  0  0
    2.4034  -13.9431   26.3219 C   0  0  0  0  0  0  0  0  0  0  0  0
  1  2  2  0
  2  3  1  0
  3  4  1  0
  4  5  1  0
  5  6  2  0
  6  7  1  0
  7  8  1  0
  8  9  1  0
  8 10  2  0
  2 11  1  0
 11 12  1  0
 12 13  2  0
 13 14  1  0
 14 15  1  0
 10  5  1  0
 15 11  2  0
M  END
>  <inchikey>  (1517) 
KQTLQMBCXCWXHR-UHFFFAOYSA-N

>  <tags>  (1517) 
fragmenstein_placed,CpKRS_FrAncestor_bulkdock_iter2

>  <ref_pdb>  (1517) 
x0654b

>  <energy_score>  (1517) 
-34.916169

>  <distance_score>  (1517) 
0.360549

>  <HIPPO Pose ID>  (1517) 
60923

>  <ref_mols>  (1517) 
x0646a

>  <smiles>  (1517) 
O=C(NCc1csc(Br)n1)c1cc[nH]c1

>  <HIPPO Compound ID>  (1517) 
453115

>  <alias>  (1517) 
KQTLQMBCXCWXHR-UHFFFAOYSA-N-P55

>  <subsites>  (1517) 


>  <placement_batch>  (1517) 
CpKRS_FrAncestor_bulkdock_iter2

>  <name>  (1517) 
KQTLQMBCXCWXHR-UHFFFAOYSA-N-P55

$$$$
BYIAPQOEIFNNFR-UHFFFAOYSA-N-P64
     RDKit          3D

 15 16  0  0  0  0  0  0  0  0999 V2000
    5.4471  -14.5033   24.4590 O   0  0  0  0  0  0  0  0  0  0  0  0
    4.5465  -13.7679   24.4996 C   0  0  0  0  0  0  0  0  0  0  0  0
    4.2003  -12.5706   23.6073 N   0  0  0  0  0  0  0  0  0  0  0  0
    4.8349  -12.0800   22.4204 C   0  0  0  0  0  0  0  0  0  0  0  0
    5.0768  -10.6069   22.5412 C   0  0  0  0  0  0  0  0  0  0  0  0
    5.0071   -9.7144   21.4873 C   0  0  0  0  0  0  0  0  0  0  0  0
    5.3087   -8.1033   21.9515 S   0  0  0  0  0  0  0  0  0  0  0  0
    5.6535   -8.5725   23.5319 C   0  0  0  0  0  0  0  0  0  0  0  0
    6.2189   -7.3456   24.8715 Br  0  0  0  0  0  0  0  0  0  0  0  0
    5.4801   -9.9157   23.7349 C   0  0  0  0  0  0  0  0  0  0  0  0
    3.5249  -13.9674   25.5278 C   0  0  0  0  0  0  0  0  0  0  0  0
    2.3607  -13.2965   25.8740 C   0  0  0  0  0  0  0  0  0  0  0  0
    1.7655  -13.9754   26.9682 C   0  0  0  0  0  0  0  0  0  0  0  0
    2.5723  -15.0436   27.2759 C   0  0  0  0  0  0  0  0  0  0  0  0
    3.6396  -15.0173   26.4208 N   0  0  0  0  0  0  0  0  0  0  0  0
  1  2  2  0
  2  3  1  0
  3  4  1  0
  4  5  1  0
  5  6  2  0
  6  7  1  0
  7  8  1  0
  8  9  1  0
  8 10  2  0
  2 11  1  0
 11 12  2  0
 12 13  1  0
 13 14  2  0
 14 15  1  0
 10  5  1  0
 15 11  1  0
M  END
>  <inchikey>  (1518) 
BYIAPQOEIFNNFR-UHFFFAOYSA-N

>  <tags>  (1518) 
fragmenstein_placed,CpKRS_FrAncestor_bulkdock_iter2

>  <ref_pdb>  (1518) 
x0654b

>  <energy_score>  (1518) 
-10.528986

>  <distance_score>  (1518) 
0.474451

>  <HIPPO Pose ID>  (1518) 
60925

>  <ref_mols>  (1518) 
x0787b

>  <smiles>  (1518) 
O=C(NCc1csc(Br)c1)c1ccc[nH]1

>  <HIPPO Compound ID>  (1518) 
393610

>  <alias>  (1518) 
BYIAPQOEIFNNFR-UHFFFAOYSA-N-P64

>  <subsites>  (1518) 


>  <placement_batch>  (1518) 
CpKRS_FrAncestor_bulkdock_iter2

>  <name>  (1518) 
BYIAPQOEIFNNFR-UHFFFAOYSA-N-P64

$$$$
LPZGPXWFUUHSTC-UHFFFAOYSA-N-P15
     RDKit          3D

 16 17  0  0  0  0  0  0  0  0999 V2000
    2.1194  -26.3780   12.7657 O   0  0  0  0  0  0  0  0  0  0  0  0
    1.7764  -25.4191   13.3325 C   0  0  0  0  0  0  0  0  0  0  0  0
    1.4298  -25.2081   14.8174 N   0  0  0  0  0  0  0  0  0  0  0  0
    1.5227  -26.1068   15.9342 C   0  0  0  0  0  0  0  0  0  0  0  0
    2.4363  -25.5802   16.9956 C   0  0  0  0  0  0  0  0  0  0  0  0
    3.3579  -24.5547   16.8714 C   0  0  0  0  0  0  0  0  0  0  0  0
    4.2366  -24.2510   18.3030 S   0  0  0  0  0  0  0  0  0  0  0  0
    3.3997  -25.4705   19.1126 C   0  0  0  0  0  0  0  0  0  0  0  0
    3.7610  -25.7910   20.7516 Cl  0  0  0  0  0  0  0  0  0  0  0  0
    2.4741  -26.1116   18.3332 C   0  0  0  0  0  0  0  0  0  0  0  0
    1.5549  -24.1878   12.5162 C   0  0  0  0  0  0  0  0  0  0  0  0
    0.5912  -23.2232   12.8129 C   0  0  0  0  0  0  0  0  0  0  0  0
    0.4287  -22.1327   11.9606 C   0  0  0  0  0  0  0  0  0  0  0  0
    1.2288  -22.0417   10.8349 C   0  0  0  0  0  0  0  0  0  0  0  0
    2.1735  -22.9543   10.5081 N   0  0  0  0  0  0  0  0  0  0  0  0
    2.2922  -24.0194   11.3467 C   0  0  0  0  0  0  0  0  0  0  0  0
  1  2  2  0
  2  3  1  0
  3  4  1  0
  4  5  1  0
  5  6  2  0
  6  7  1  0
  7  8  1  0
  8  9  1  0
  8 10  2  0
  2 11  1  0
 11 12  2  0
 12 13  1  0
 13 14  2  0
 14 15  1  0
 15 16  2  0
 10  5  1  0
 16 11  1  0
M  END
>  <inchikey>  (1519) 
LPZGPXWFUUHSTC-UHFFFAOYSA-N

>  <tags>  (1519) 
fragmenstein_placed,CpKRS_FrAncestor_bulkdock_iter2

>  <ref_pdb>  (1519) 
x0654b

>  <energy_score>  (1519) 
-1.941279

>  <distance_score>  (1519) 
0.442158

>  <HIPPO Pose ID>  (1519) 
60927

>  <ref_mols>  (1519) 
x0426b

>  <smiles>  (1519) 
O=C(NCc1csc(Cl)c1)c1cccnc1

>  <HIPPO Compound ID>  (1519) 
453116

>  <alias>  (1519) 
LPZGPXWFUUHSTC-UHFFFAOYSA-N-P15

>  <subsites>  (1519) 


>  <placement_batch>  (1519) 
CpKRS_FrAncestor_bulkdock_iter2

>  <name>  (1519) 
LPZGPXWFUUHSTC-UHFFFAOYSA-N-P15

$$$$
BUAVMJLKYDWJSP-UHFFFAOYSA-N-P15
     RDKit          3D

 17 18  0  0  0  0  0  0  0  0999 V2000
    2.2031  -26.3950   12.7609 O   0  0  0  0  0  0  0  0  0  0  0  0
    1.8328  -25.4522   13.3371 C   0  0  0  0  0  0  0  0  0  0  0  0
    1.4780  -25.2668   14.8235 N   0  0  0  0  0  0  0  0  0  0  0  0
    1.5938  -26.1742   15.9306 C   0  0  0  0  0  0  0  0  0  0  0  0
    2.4738  -25.6179   17.0050 C   0  0  0  0  0  0  0  0  0  0  0  0
    3.3854  -24.5827   16.8848 C   0  0  0  0  0  0  0  0  0  0  0  0
    4.2365  -24.2540   18.3277 S   0  0  0  0  0  0  0  0  0  0  0  0
    3.3979  -25.4725   19.1367 C   0  0  0  0  0  0  0  0  0  0  0  0
    3.7378  -25.7743   20.7836 Cl  0  0  0  0  0  0  0  0  0  0  0  0
    2.4910  -26.1308   18.3499 C   0  0  0  0  0  0  0  0  0  0  0  0
    1.5805  -24.2201   12.5337 C   0  0  0  0  0  0  0  0  0  0  0  0
    2.3069  -24.0222   11.3579 C   0  0  0  0  0  0  0  0  0  0  0  0
    2.1633  -22.9467   10.5333 N   0  0  0  0  0  0  0  0  0  0  0  0
    1.2021  -22.0561   10.8882 C   0  0  0  0  0  0  0  0  0  0  0  0
    0.4177  -22.1923   12.0197 C   0  0  0  0  0  0  0  0  0  0  0  0
   -0.5108  -21.2807   12.3244 F   0  0  0  0  0  0  0  0  0  0  0  0
    0.5995  -23.2840   12.8547 C   0  0  0  0  0  0  0  0  0  0  0  0
  1  2  2  0
  2  3  1  0
  3  4  1  0
  4  5  1  0
  5  6  2  0
  6  7  1  0
  7  8  1  0
  8  9  1  0
  8 10  2  0
  2 11  1  0
 11 12  2  0
 12 13  1  0
 13 14  2  0
 14 15  1  0
 15 16  1  0
 15 17  2  0
 10  5  1  0
 17 11  1  0
M  END
>  <inchikey>  (1520) 
BUAVMJLKYDWJSP-UHFFFAOYSA-N

>  <tags>  (1520) 
fragmenstein_placed,CpKRS_FrAncestor_bulkdock_iter2

>  <ref_pdb>  (1520) 
x0654b

>  <energy_score>  (1520) 
-6.475527

>  <distance_score>  (1520) 
0.435748

>  <HIPPO Pose ID>  (1520) 
60929

>  <ref_mols>  (1520) 
x0426b

>  <smiles>  (1520) 
O=C(NCc1csc(Cl)c1)c1cncc(F)c1

>  <HIPPO Compound ID>  (1520) 
453117

>  <alias>  (1520) 
BUAVMJLKYDWJSP-UHFFFAOYSA-N-P15

>  <subsites>  (1520) 


>  <placement_batch>  (1520) 
CpKRS_FrAncestor_bulkdock_iter2

>  <name>  (1520) 
BUAVMJLKYDWJSP-UHFFFAOYSA-N-P15

$$$$
BWHWIMRBCQFPOD-UHFFFAOYSA-N-P55
     RDKit          3D

 16 17  0  0  0  0  0  0  0  0999 V2000
    5.8024  -14.0659   24.8242 O   0  0  0  0  0  0  0  0  0  0  0  0
    4.6752  -13.7833   24.7593 C   0  0  0  0  0  0  0  0  0  0  0  0
    3.8951  -13.0542   23.6597 N   0  0  0  0  0  0  0  0  0  0  0  0
    4.3488  -12.4356   22.4523 C   0  0  0  0  0  0  0  0  0  0  0  0
    4.6911  -10.9918   22.6371 C   0  0  0  0  0  0  0  0  0  0  0  0
    5.0082  -10.1322   21.5981 C   0  0  0  0  0  0  0  0  0  0  0  0
    5.3864   -8.5502   22.1228 S   0  0  0  0  0  0  0  0  0  0  0  0
    5.1890   -8.9971   23.7335 C   0  0  0  0  0  0  0  0  0  0  0  0
    5.4715   -7.8558   24.9767 Cl  0  0  0  0  0  0  0  0  0  0  0  0
    4.7917  -10.2974   23.8837 C   0  0  0  0  0  0  0  0  0  0  0  0
    3.7381  -14.2006   25.8244 C   0  0  0  0  0  0  0  0  0  0  0  0
    4.0436  -15.1022   26.8814 C   0  0  0  0  0  0  0  0  0  0  0  0
    2.8988  -15.1552   27.6137 C   0  0  0  0  0  0  0  0  0  0  0  0
    2.5077  -15.8995   29.0763 Cl  0  0  0  0  0  0  0  0  0  0  0  0
    1.9721  -14.3922   26.9870 N   0  0  0  0  0  0  0  0  0  0  0  0
    2.4627  -13.7446   25.9059 N   0  0  0  0  0  0  0  0  0  0  0  0
  1  2  2  0
  2  3  1  0
  3  4  1  0
  4  5  1  0
  5  6  2  0
  6  7  1  0
  7  8  1  0
  8  9  1  0
  8 10  2  0
  2 11  1  0
 11 12  1  0
 12 13  2  0
 13 14  1  0
 13 15  1  0
 15 16  1  0
 10  5  1  0
 16 11  2  0
M  END
>  <inchikey>  (1521) 
BWHWIMRBCQFPOD-UHFFFAOYSA-N

>  <tags>  (1521) 
fragmenstein_placed,CpKRS_FrAncestor_bulkdock_iter2

>  <ref_pdb>  (1521) 
x0654b

>  <energy_score>  (1521) 
-32.114277

>  <distance_score>  (1521) 
0.40858

>  <HIPPO Pose ID>  (1521) 
60930

>  <ref_mols>  (1521) 
x0646a

>  <smiles>  (1521) 
O=C(NCc1csc(Cl)c1)c1cc(Cl)[nH]n1

>  <HIPPO Compound ID>  (1521) 
453118

>  <alias>  (1521) 
BWHWIMRBCQFPOD-UHFFFAOYSA-N-P55

>  <subsites>  (1521) 


>  <placement_batch>  (1521) 
CpKRS_FrAncestor_bulkdock_iter2

>  <name>  (1521) 
BWHWIMRBCQFPOD-UHFFFAOYSA-N-P55

$$$$
WNEYVMBUHPDDEW-UHFFFAOYSA-N-P55
     RDKit          3D

 15 16  0  0  0  0  0  0  0  0999 V2000
    5.7675  -14.0778   24.9411 O   0  0  0  0  0  0  0  0  0  0  0  0
    4.6372  -13.8062   24.8700 C   0  0  0  0  0  0  0  0  0  0  0  0
    3.8699  -13.0127   23.8040 N   0  0  0  0  0  0  0  0  0  0  0  0
    4.3086  -12.4667   22.5555 C   0  0  0  0  0  0  0  0  0  0  0  0
    4.6795  -11.0211   22.6749 C   0  0  0  0  0  0  0  0  0  0  0  0
    5.0049  -10.2044   21.6048 C   0  0  0  0  0  0  0  0  0  0  0  0
    5.4036   -8.6076   22.0703 S   0  0  0  0  0  0  0  0  0  0  0  0
    5.2146   -8.9944   23.6972 C   0  0  0  0  0  0  0  0  0  0  0  0
    5.5231   -7.8183   24.9014 Cl  0  0  0  0  0  0  0  0  0  0  0  0
    4.8005  -10.2823   23.8940 C   0  0  0  0  0  0  0  0  0  0  0  0
    3.6824  -14.2655   25.9057 C   0  0  0  0  0  0  0  0  0  0  0  0
    3.9388  -15.2402   26.9067 C   0  0  0  0  0  0  0  0  0  0  0  0
    2.7598  -15.3772   27.5934 C   0  0  0  0  0  0  0  0  0  0  0  0
    1.8836  -14.5167   27.0037 N   0  0  0  0  0  0  0  0  0  0  0  0
    2.4158  -13.7980   25.9958 N   0  0  0  0  0  0  0  0  0  0  0  0
  1  2  2  0
  2  3  1  0
  3  4  1  0
  4  5  1  0
  5  6  2  0
  6  7  1  0
  7  8  1  0
  8  9  1  0
  8 10  2  0
  2 11  1  0
 11 12  1  0
 12 13  2  0
 13 14  1  0
 14 15  1  0
 10  5  1  0
 15 11  2  0
M  END
>  <inchikey>  (1522) 
WNEYVMBUHPDDEW-UHFFFAOYSA-N

>  <tags>  (1522) 
fragmenstein_placed,CpKRS_FrAncestor_bulkdock_iter2

>  <ref_pdb>  (1522) 
x0654b

>  <energy_score>  (1522) 
-28.448208

>  <distance_score>  (1522) 
0.366696

>  <HIPPO Pose ID>  (1522) 
60931

>  <ref_mols>  (1522) 
x0646a

>  <smiles>  (1522) 
O=C(NCc1csc(Cl)c1)c1cc[nH]n1

>  <HIPPO Compound ID>  (1522) 
453119

>  <alias>  (1522) 
WNEYVMBUHPDDEW-UHFFFAOYSA-N-P55

>  <subsites>  (1522) 


>  <placement_batch>  (1522) 
CpKRS_FrAncestor_bulkdock_iter2

>  <name>  (1522) 
WNEYVMBUHPDDEW-UHFFFAOYSA-N-P55

$$$$
PGGKHLZEHIQLOV-UHFFFAOYSA-N-P55
     RDKit          3D

 15 16  0  0  0  0  0  0  0  0999 V2000
    5.7456  -14.2058   25.0366 O   0  0  0  0  0  0  0  0  0  0  0  0
    4.6400  -13.8439   25.0003 C   0  0  0  0  0  0  0  0  0  0  0  0
    3.9144  -12.9669   23.9726 N   0  0  0  0  0  0  0  0  0  0  0  0
    4.3651  -12.4287   22.7287 C   0  0  0  0  0  0  0  0  0  0  0  0
    4.7184  -10.9765   22.8189 C   0  0  0  0  0  0  0  0  0  0  0  0
    5.0813  -10.1957   21.7319 C   0  0  0  0  0  0  0  0  0  0  0  0
    5.4559   -8.6049   22.2322 S   0  0  0  0  0  0  0  0  0  0  0  0
    5.1599   -9.0739   23.8316 C   0  0  0  0  0  0  0  0  0  0  0  0
    5.3783   -7.9398   25.0932 Cl  0  0  0  0  0  0  0  0  0  0  0  0
    4.7250  -10.2930   24.0334 N   0  0  0  0  0  0  0  0  0  0  0  0
    3.7006  -14.3296   26.0384 C   0  0  0  0  0  0  0  0  0  0  0  0
    4.0103  -15.3421   27.0031 C   0  0  0  0  0  0  0  0  0  0  0  0
    2.8993  -15.5607   27.7828 C   0  0  0  0  0  0  0  0  0  0  0  0
    1.9149  -14.7192   27.3457 N   0  0  0  0  0  0  0  0  0  0  0  0
    2.3842  -13.9690   26.2935 C   0  0  0  0  0  0  0  0  0  0  0  0
  1  2  2  0
  2  3  1  0
  3  4  1  0
  4  5  1  0
  5  6  2  0
  6  7  1  0
  7  8  1  0
  8  9  1  0
  8 10  2  0
  2 11  1  0
 11 12  1  0
 12 13  2  0
 13 14  1  0
 14 15  1  0
 10  5  1  0
 15 11  2  0
M  END
>  <inchikey>  (1523) 
PGGKHLZEHIQLOV-UHFFFAOYSA-N

>  <tags>  (1523) 
fragmenstein_placed,CpKRS_FrAncestor_bulkdock_iter2

>  <ref_pdb>  (1523) 
x0654b

>  <energy_score>  (1523) 
-25.236434

>  <distance_score>  (1523) 
0.345091

>  <HIPPO Pose ID>  (1523) 
60932

>  <ref_mols>  (1523) 
x0646a

>  <smiles>  (1523) 
O=C(NCc1csc(Cl)n1)c1cc[nH]c1

>  <HIPPO Compound ID>  (1523) 
453120

>  <alias>  (1523) 
PGGKHLZEHIQLOV-UHFFFAOYSA-N-P55

>  <subsites>  (1523) 


>  <placement_batch>  (1523) 
CpKRS_FrAncestor_bulkdock_iter2

>  <name>  (1523) 
PGGKHLZEHIQLOV-UHFFFAOYSA-N-P55

$$$$
HXVFYADYMIEXGT-UHFFFAOYSA-N-P55
     RDKit          3D

 15 16  0  0  0  0  0  0  0  0999 V2000
    5.7255  -13.9860   24.6907 O   0  0  0  0  0  0  0  0  0  0  0  0
    4.6086  -13.6643   24.7017 C   0  0  0  0  0  0  0  0  0  0  0  0
    3.8315  -12.7496   23.7559 N   0  0  0  0  0  0  0  0  0  0  0  0
    4.2331  -12.1117   22.5464 C   0  0  0  0  0  0  0  0  0  0  0  0
    4.5892  -10.6809   22.7986 C   0  0  0  0  0  0  0  0  0  0  0  0
    5.2812   -9.8730   21.9146 C   0  0  0  0  0  0  0  0  0  0  0  0
    5.5264   -8.3229   22.5893 S   0  0  0  0  0  0  0  0  0  0  0  0
    4.7228   -8.8286   24.0086 C   0  0  0  0  0  0  0  0  0  0  0  0
    4.2195  -10.0423   23.9835 N   0  0  0  0  0  0  0  0  0  0  0  0
    3.7368  -14.1870   25.7680 C   0  0  0  0  0  0  0  0  0  0  0  0
    2.3897  -13.9584   26.0249 C   0  0  0  0  0  0  0  0  0  0  0  0
    2.0353  -14.6670   27.1475 N   0  0  0  0  0  0  0  0  0  0  0  0
    3.1306  -15.3159   27.6242 C   0  0  0  0  0  0  0  0  0  0  0  0
    3.2192  -16.3083   29.2173 Br  0  0  0  0  0  0  0  0  0  0  0  0
    4.1828  -15.0869   26.7835 C   0  0  0  0  0  0  0  0  0  0  0  0
  1  2  2  0
  2  3  1  0
  3  4  1  0
  4  5  1  0
  5  6  2  0
  6  7  1  0
  7  8  1  0
  8  9  2  0
  2 10  1  0
 10 11  2  0
 11 12  1  0
 12 13  1  0
 13 14  1  0
 13 15  2  0
  9  5  1  0
 15 10  1  0
M  END
>  <inchikey>  (1524) 
HXVFYADYMIEXGT-UHFFFAOYSA-N

>  <tags>  (1524) 
fragmenstein_placed,CpKRS_FrAncestor_bulkdock_iter2

>  <ref_pdb>  (1524) 
x0654b

>  <energy_score>  (1524) 
-56.815079

>  <distance_score>  (1524) 
0.488465

>  <HIPPO Pose ID>  (1524) 
60933

>  <ref_mols>  (1524) 
x0646a

>  <smiles>  (1524) 
O=C(NCc1cscn1)c1c[nH]c(Br)c1

>  <HIPPO Compound ID>  (1524) 
393622

>  <alias>  (1524) 
HXVFYADYMIEXGT-UHFFFAOYSA-N-P55

>  <subsites>  (1524) 


>  <placement_batch>  (1524) 
CpKRS_FrAncestor_bulkdock_iter2

>  <name>  (1524) 
HXVFYADYMIEXGT-UHFFFAOYSA-N-P55

$$$$
NAUSEJNAAZZSCJ-UHFFFAOYSA-N-P64
     RDKit          3D

 15 16  0  0  0  0  0  0  0  0999 V2000
    5.4939  -14.4226   24.4712 O   0  0  0  0  0  0  0  0  0  0  0  0
    4.5594  -13.7299   24.4800 C   0  0  0  0  0  0  0  0  0  0  0  0
    4.1834  -12.5572   23.5675 N   0  0  0  0  0  0  0  0  0  0  0  0
    4.8278  -12.0468   22.3944 C   0  0  0  0  0  0  0  0  0  0  0  0
    5.0856  -10.5796   22.5516 C   0  0  0  0  0  0  0  0  0  0  0  0
    5.0091   -9.6547   21.5257 C   0  0  0  0  0  0  0  0  0  0  0  0
    5.3274   -8.0593   22.0381 S   0  0  0  0  0  0  0  0  0  0  0  0
    5.6901   -8.5812   23.5974 C   0  0  0  0  0  0  0  0  0  0  0  0
    6.2095   -7.4495   24.7733 Cl  0  0  0  0  0  0  0  0  0  0  0  0
    5.5101   -9.9280   23.7598 C   0  0  0  0  0  0  0  0  0  0  0  0
    3.5319  -13.9494   25.4973 C   0  0  0  0  0  0  0  0  0  0  0  0
    2.2713  -13.4153   25.7227 C   0  0  0  0  0  0  0  0  0  0  0  0
    1.7233  -14.0411   26.8716 C   0  0  0  0  0  0  0  0  0  0  0  0
    2.6490  -14.9493   27.3247 C   0  0  0  0  0  0  0  0  0  0  0  0
    3.7392  -14.8772   26.5016 N   0  0  0  0  0  0  0  0  0  0  0  0
  1  2  2  0
  2  3  1  0
  3  4  1  0
  4  5  1  0
  5  6  2  0
  6  7  1  0
  7  8  1  0
  8  9  1  0
  8 10  2  0
  2 11  1  0
 11 12  2  0
 12 13  1  0
 13 14  2  0
 14 15  1  0
 10  5  1  0
 15 11  1  0
M  END
>  <inchikey>  (1525) 
NAUSEJNAAZZSCJ-UHFFFAOYSA-N

>  <tags>  (1525) 
fragmenstein_placed,CpKRS_FrAncestor_bulkdock_iter2

>  <ref_pdb>  (1525) 
x0654b

>  <energy_score>  (1525) 
-9.702556

>  <distance_score>  (1525) 
0.453887

>  <HIPPO Pose ID>  (1525) 
60935

>  <ref_mols>  (1525) 
x0787b

>  <smiles>  (1525) 
O=C(NCc1csc(Cl)c1)c1ccc[nH]1

>  <HIPPO Compound ID>  (1525) 
453121

>  <alias>  (1525) 
NAUSEJNAAZZSCJ-UHFFFAOYSA-N-P64

>  <subsites>  (1525) 


>  <placement_batch>  (1525) 
CpKRS_FrAncestor_bulkdock_iter2

>  <name>  (1525) 
NAUSEJNAAZZSCJ-UHFFFAOYSA-N-P64

$$$$
RTPQVOOWOWYMEK-UHFFFAOYSA-N-P64
     RDKit          3D

 16 17  0  0  0  0  0  0  0  0999 V2000
    4.8425  -11.7479   21.3161 O   0  0  0  0  0  0  0  0  0  0  0  0
    4.9023  -11.4418   22.4352 C   0  0  0  0  0  0  0  0  0  0  0  0
    4.7546  -12.2877   23.7066 N   0  0  0  0  0  0  0  0  0  0  0  0
    4.5962  -13.7060   23.8705 C   0  0  0  0  0  0  0  0  0  0  0  0
    3.7631  -14.0062   25.0738 C   0  0  0  0  0  0  0  0  0  0  0  0
    4.1836  -14.7745   26.1495 C   0  0  0  0  0  0  0  0  0  0  0  0
    2.9426  -15.0400   27.3029 S   0  0  0  0  0  0  0  0  0  0  0  0
    1.8565  -14.1095   26.4058 C   0  0  0  0  0  0  0  0  0  0  0  0
    0.2413  -13.9153   26.9542 Cl  0  0  0  0  0  0  0  0  0  0  0  0
    2.3938  -13.6006   25.2521 C   0  0  0  0  0  0  0  0  0  0  0  0
    5.1509  -10.0427   22.7356 C   0  0  0  0  0  0  0  0  0  0  0  0
    4.9866   -8.9709   21.8678 C   0  0  0  0  0  0  0  0  0  0  0  0
    5.2969   -7.7746   22.4566 N   0  0  0  0  0  0  0  0  0  0  0  0
    5.7391   -8.1210   23.6349 C   0  0  0  0  0  0  0  0  0  0  0  0
    6.3550   -7.1140   24.8431 Cl  0  0  0  0  0  0  0  0  0  0  0  0
    5.6822   -9.4593   23.8602 N   0  0  0  0  0  0  0  0  0  0  0  0
  1  2  2  0
  2  3  1  0
  3  4  1  0
  4  5  1  0
  5  6  2  0
  6  7  1  0
  7  8  1  0
  8  9  1  0
  8 10  2  0
  2 11  1  0
 11 12  2  0
 12 13  1  0
 13 14  2  0
 14 15  1  0
 14 16  1  0
 10  5  1  0
 16 11  1  0
M  END
>  <inchikey>  (1526) 
RTPQVOOWOWYMEK-UHFFFAOYSA-N

>  <tags>  (1526) 
fragmenstein_placed,CpKRS_FrAncestor_bulkdock_iter2

>  <ref_pdb>  (1526) 
x0654b

>  <energy_score>  (1526) 
-7.48557

>  <distance_score>  (1526) 
0.661091

>  <HIPPO Pose ID>  (1526) 
60937

>  <ref_mols>  (1526) 
x0787b

>  <smiles>  (1526) 
O=C(NCc1csc(Cl)c1)c1cnc(Cl)[nH]1

>  <HIPPO Compound ID>  (1526) 
453122

>  <alias>  (1526) 
RTPQVOOWOWYMEK-UHFFFAOYSA-N-P64

>  <subsites>  (1526) 


>  <placement_batch>  (1526) 
CpKRS_FrAncestor_bulkdock_iter2

>  <name>  (1526) 
RTPQVOOWOWYMEK-UHFFFAOYSA-N-P64

$$$$
MEYQIXHSFRHITE-UHFFFAOYSA-N-P55
     RDKit          3D

 15 16  0  0  0  0  0  0  0  0999 V2000
    5.8240  -14.1005   24.9596 O   0  0  0  0  0  0  0  0  0  0  0  0
    4.6911  -13.8371   24.9187 C   0  0  0  0  0  0  0  0  0  0  0  0
    3.8962  -13.0227   23.8901 N   0  0  0  0  0  0  0  0  0  0  0  0
    4.3038  -12.4422   22.6517 C   0  0  0  0  0  0  0  0  0  0  0  0
    4.7050  -11.0206   22.8462 C   0  0  0  0  0  0  0  0  0  0  0  0
    4.5302  -10.2510   23.9064 N   0  0  0  0  0  0  0  0  0  0  0  0
    5.1906   -9.0882   23.6244 C   0  0  0  0  0  0  0  0  0  0  0  0
    5.4473   -7.7140   24.8723 Br  0  0  0  0  0  0  0  0  0  0  0  0
    5.6526   -9.0837   22.3352 C   0  0  0  0  0  0  0  0  0  0  0  0
    5.3785  -10.3342   21.8623 N   0  0  0  0  0  0  0  0  0  0  0  0
    3.8082  -14.3736   25.9803 C   0  0  0  0  0  0  0  0  0  0  0  0
    4.1804  -15.4890   26.8148 C   0  0  0  0  0  0  0  0  0  0  0  0
    3.2123  -15.8367   27.7274 C   0  0  0  0  0  0  0  0  0  0  0  0
    1.8654  -14.7966   27.6433 S   0  0  0  0  0  0  0  0  0  0  0  0
    2.5557  -13.9134   26.3500 C   0  0  0  0  0  0  0  0  0  0  0  0
  1  2  2  0
  2  3  1  0
  3  4  1  0
  4  5  1  0
  5  6  2  0
  6  7  1  0
  7  8  1  0
  7  9  2  0
  9 10  1  0
  2 11  1  0
 11 12  1  0
 12 13  2  0
 13 14  1  0
 14 15  1  0
 10  5  1  0
 15 11  2  0
M  END
>  <inchikey>  (1527) 
MEYQIXHSFRHITE-UHFFFAOYSA-N

>  <tags>  (1527) 
fragmenstein_placed,CpKRS_FrAncestor_bulkdock_iter2

>  <ref_pdb>  (1527) 
x0654b

>  <energy_score>  (1527) 
-20.707321

>  <distance_score>  (1527) 
0.371235

>  <HIPPO Pose ID>  (1527) 
60938

>  <ref_mols>  (1527) 
x0646a

>  <smiles>  (1527) 
O=C(NCc1nc(Br)c[nH]1)c1ccsc1

>  <HIPPO Compound ID>  (1527) 
453123

>  <alias>  (1527) 
MEYQIXHSFRHITE-UHFFFAOYSA-N-P55

>  <subsites>  (1527) 


>  <placement_batch>  (1527) 
CpKRS_FrAncestor_bulkdock_iter2

>  <name>  (1527) 
MEYQIXHSFRHITE-UHFFFAOYSA-N-P55

$$$$
VGAPYDXNSQATMN-UHFFFAOYSA-N-P55
     RDKit          3D

 15 16  0  0  0  0  0  0  0  0999 V2000
    5.6985  -14.2097   25.0521 O   0  0  0  0  0  0  0  0  0  0  0  0
    4.5868  -13.8662   25.0385 C   0  0  0  0  0  0  0  0  0  0  0  0
    3.8319  -12.9831   24.0386 N   0  0  0  0  0  0  0  0  0  0  0  0
    4.2560  -12.4130   22.7964 C   0  0  0  0  0  0  0  0  0  0  0  0
    4.6466  -10.9710   22.9355 C   0  0  0  0  0  0  0  0  0  0  0  0
    4.6506  -10.2446   24.0375 N   0  0  0  0  0  0  0  0  0  0  0  0
    5.1658   -8.9961   23.7631 C   0  0  0  0  0  0  0  0  0  0  0  0
    5.4269   -7.7179   25.1242 Br  0  0  0  0  0  0  0  0  0  0  0  0
    5.4515   -8.7345   22.4456 C   0  0  0  0  0  0  0  0  0  0  0  0
    5.1409  -10.1260   21.5156 S   0  0  0  0  0  0  0  0  0  0  0  0
    3.6730  -14.3710   26.0895 C   0  0  0  0  0  0  0  0  0  0  0  0
    4.0104  -15.3892   27.0374 C   0  0  0  0  0  0  0  0  0  0  0  0
    2.9201  -15.6179   27.8429 C   0  0  0  0  0  0  0  0  0  0  0  0
    1.9222  -14.7761   27.4384 N   0  0  0  0  0  0  0  0  0  0  0  0
    2.3612  -14.0190   26.3784 C   0  0  0  0  0  0  0  0  0  0  0  0
  1  2  2  0
  2  3  1  0
  3  4  1  0
  4  5  1  0
  5  6  2  0
  6  7  1  0
  7  8  1  0
  7  9  2  0
  9 10  1  0
  2 11  1  0
 11 12  1  0
 12 13  2  0
 13 14  1  0
 14 15  1  0
 10  5  1  0
 15 11  2  0
M  END
>  <inchikey>  (1528) 
VGAPYDXNSQATMN-UHFFFAOYSA-N

>  <tags>  (1528) 
fragmenstein_placed,CpKRS_FrAncestor_bulkdock_iter2

>  <ref_pdb>  (1528) 
x0654b

>  <energy_score>  (1528) 
-31.596812

>  <distance_score>  (1528) 
0.334856

>  <HIPPO Pose ID>  (1528) 
60939

>  <ref_mols>  (1528) 
x0646a

>  <smiles>  (1528) 
O=C(NCc1nc(Br)cs1)c1cc[nH]c1

>  <HIPPO Compound ID>  (1528) 
453124

>  <alias>  (1528) 
VGAPYDXNSQATMN-UHFFFAOYSA-N-P55

>  <subsites>  (1528) 


>  <placement_batch>  (1528) 
CpKRS_FrAncestor_bulkdock_iter2

>  <name>  (1528) 
VGAPYDXNSQATMN-UHFFFAOYSA-N-P55

$$$$
ONEOYFFNGUKLFC-UHFFFAOYSA-N-P55
     RDKit          3D

 15 16  0  0  0  0  0  0  0  0999 V2000
    5.6764  -13.8759   24.9552 O   0  0  0  0  0  0  0  0  0  0  0  0
    4.5205  -13.7599   24.8890 C   0  0  0  0  0  0  0  0  0  0  0  0
    3.6494  -13.0784   23.8276 N   0  0  0  0  0  0  0  0  0  0  0  0
    4.0170  -12.3122   22.6702 C   0  0  0  0  0  0  0  0  0  0  0  0
    4.2087  -10.8823   23.0793 C   0  0  0  0  0  0  0  0  0  0  0  0
    3.4046  -10.2126   23.8891 N   0  0  0  0  0  0  0  0  0  0  0  0
    4.0178   -9.0391   24.2708 C   0  0  0  0  0  0  0  0  0  0  0  0
    5.2304   -8.8058   23.6815 C   0  0  0  0  0  0  0  0  0  0  0  0
    6.3649   -7.3844   24.2105 Br  0  0  0  0  0  0  0  0  0  0  0  0
    5.5654   -9.9808   22.5106 S   0  0  0  0  0  0  0  0  0  0  0  0
    3.6757  -14.3530   25.9469 C   0  0  0  0  0  0  0  0  0  0  0  0
    4.0853  -15.3719   26.8626 C   0  0  0  0  0  0  0  0  0  0  0  0
    3.0281  -15.6596   27.6947 C   0  0  0  0  0  0  0  0  0  0  0  0
    1.9891  -14.8419   27.3447 N   0  0  0  0  0  0  0  0  0  0  0  0
    2.3685  -14.0420   26.2952 C   0  0  0  0  0  0  0  0  0  0  0  0
  1  2  2  0
  2  3  1  0
  3  4  1  0
  4  5  1  0
  5  6  2  0
  6  7  1  0
  7  8  2  0
  8  9  1  0
  8 10  1  0
  2 11  1  0
 11 12  1  0
 12 13  2  0
 13 14  1  0
 14 15  1  0
 10  5  1  0
 15 11  2  0
M  END
>  <inchikey>  (1529) 
ONEOYFFNGUKLFC-UHFFFAOYSA-N

>  <tags>  (1529) 
fragmenstein_placed,CpKRS_FrAncestor_bulkdock_iter2

>  <ref_pdb>  (1529) 
x0654b

>  <energy_score>  (1529) 
-27.537203

>  <distance_score>  (1529) 
0.900911

>  <HIPPO Pose ID>  (1529) 
60940

>  <ref_mols>  (1529) 
x0646a

>  <smiles>  (1529) 
O=C(NCc1ncc(Br)s1)c1cc[nH]c1

>  <HIPPO Compound ID>  (1529) 
453125

>  <alias>  (1529) 
ONEOYFFNGUKLFC-UHFFFAOYSA-N-P55

>  <subsites>  (1529) 


>  <placement_batch>  (1529) 
CpKRS_FrAncestor_bulkdock_iter2

>  <name>  (1529) 
ONEOYFFNGUKLFC-UHFFFAOYSA-N-P55

$$$$
BGUMKQICJQHXRY-UHFFFAOYSA-N-P55
     RDKit          3D

 15 16  0  0  0  0  0  0  0  0999 V2000
    5.7111  -14.2185   25.2825 O   0  0  0  0  0  0  0  0  0  0  0  0
    4.5657  -14.0409   25.1922 C   0  0  0  0  0  0  0  0  0  0  0  0
    3.7578  -13.3066   24.1219 N   0  0  0  0  0  0  0  0  0  0  0  0
    4.1713  -12.7162   22.8889 C   0  0  0  0  0  0  0  0  0  0  0  0
    4.4223  -11.2549   23.0865 C   0  0  0  0  0  0  0  0  0  0  0  0
    4.1468  -10.5541   24.1748 N   0  0  0  0  0  0  0  0  0  0  0  0
    4.5420   -9.2479   23.9980 C   0  0  0  0  0  0  0  0  0  0  0  0
    5.0252   -8.9756   22.7509 C   0  0  0  0  0  0  0  0  0  0  0  0
    5.4600   -7.4666   22.1339 Cl  0  0  0  0  0  0  0  0  0  0  0  0
    5.0991  -10.3520   21.7851 S   0  0  0  0  0  0  0  0  0  0  0  0
    3.6646  -14.5583   26.2395 C   0  0  0  0  0  0  0  0  0  0  0  0
    4.0041  -15.5626   27.1926 C   0  0  0  0  0  0  0  0  0  0  0  0
    2.9214  -15.7633   28.0153 C   0  0  0  0  0  0  0  0  0  0  0  0
    1.9288  -14.9121   27.6160 N   0  0  0  0  0  0  0  0  0  0  0  0
    2.3649  -14.1753   26.5436 C   0  0  0  0  0  0  0  0  0  0  0  0
  1  2  2  0
  2  3  1  0
  3  4  1  0
  4  5  1  0
  5  6  2  0
  6  7  1  0
  7  8  2  0
  8  9  1  0
  8 10  1  0
  2 11  1  0
 11 12  1  0
 12 13  2  0
 13 14  1  0
 14 15  1  0
 10  5  1  0
 15 11  2  0
M  END
>  <inchikey>  (1530) 
BGUMKQICJQHXRY-UHFFFAOYSA-N

>  <tags>  (1530) 
fragmenstein_placed,CpKRS_FrAncestor_bulkdock_iter2

>  <ref_pdb>  (1530) 
x0654b

>  <energy_score>  (1530) 
-29.90091

>  <distance_score>  (1530) 
0.656507

>  <HIPPO Pose ID>  (1530) 
60942

>  <ref_mols>  (1530) 
x0646a

>  <smiles>  (1530) 
O=C(NCc1ncc(Cl)s1)c1cc[nH]c1

>  <HIPPO Compound ID>  (1530) 
453126

>  <alias>  (1530) 
BGUMKQICJQHXRY-UHFFFAOYSA-N-P55

>  <subsites>  (1530) 


>  <placement_batch>  (1530) 
CpKRS_FrAncestor_bulkdock_iter2

>  <name>  (1530) 
BGUMKQICJQHXRY-UHFFFAOYSA-N-P55

$$$$
MCBDFZYFSLISJF-UHFFFAOYSA-N-P55
     RDKit          3D

 16 17  0  0  0  0  0  0  0  0999 V2000
    5.6679  -14.1951   25.2848 O   0  0  0  0  0  0  0  0  0  0  0  0
    4.5251  -14.0153   25.1685 C   0  0  0  0  0  0  0  0  0  0  0  0
    3.7422  -13.2833   24.0767 N   0  0  0  0  0  0  0  0  0  0  0  0
    4.1840  -12.6997   22.8514 C   0  0  0  0  0  0  0  0  0  0  0  0
    4.4345  -11.2405   23.0605 C   0  0  0  0  0  0  0  0  0  0  0  0
    4.1612  -10.5527   24.1580 N   0  0  0  0  0  0  0  0  0  0  0  0
    4.5518   -9.2437   23.9925 C   0  0  0  0  0  0  0  0  0  0  0  0
    5.0309   -8.9588   22.7467 C   0  0  0  0  0  0  0  0  0  0  0  0
    5.4593   -7.4437   22.1424 Cl  0  0  0  0  0  0  0  0  0  0  0  0
    5.1066  -10.3251   21.7675 S   0  0  0  0  0  0  0  0  0  0  0  0
    3.6056  -14.4991   26.2115 C   0  0  0  0  0  0  0  0  0  0  0  0
    2.2870  -14.1394   26.4751 C   0  0  0  0  0  0  0  0  0  0  0  0
    1.8440  -14.8451   27.5711 N   0  0  0  0  0  0  0  0  0  0  0  0
    2.8485  -15.6534   28.0263 C   0  0  0  0  0  0  0  0  0  0  0  0
    3.9269  -15.4445   27.2099 C   0  0  0  0  0  0  0  0  0  0  0  0
    5.1109  -16.0426   27.3586 F   0  0  0  0  0  0  0  0  0  0  0  0
  1  2  2  0
  2  3  1  0
  3  4  1  0
  4  5  1  0
  5  6  2  0
  6  7  1  0
  7  8  2  0
  8  9  1  0
  8 10  1  0
  2 11  1  0
 11 12  2  0
 12 13  1  0
 13 14  1  0
 14 15  2  0
 15 16  1  0
 10  5  1  0
 15 11  1  0
M  END
>  <inchikey>  (1531) 
MCBDFZYFSLISJF-UHFFFAOYSA-N

>  <tags>  (1531) 
fragmenstein_placed,CpKRS_FrAncestor_bulkdock_iter2

>  <ref_pdb>  (1531) 
x0654b

>  <energy_score>  (1531) 
-43.283568

>  <distance_score>  (1531) 
0.637948

>  <HIPPO Pose ID>  (1531) 
60943

>  <ref_mols>  (1531) 
x0646a

>  <smiles>  (1531) 
O=C(NCc1ncc(Cl)s1)c1c[nH]cc1F

>  <HIPPO Compound ID>  (1531) 
453127

>  <alias>  (1531) 
MCBDFZYFSLISJF-UHFFFAOYSA-N-P55

>  <subsites>  (1531) 


>  <placement_batch>  (1531) 
CpKRS_FrAncestor_bulkdock_iter2

>  <name>  (1531) 
MCBDFZYFSLISJF-UHFFFAOYSA-N-P55

$$$$
WQZXJXXAVCJXFP-UHFFFAOYSA-N-P55
     RDKit          3D

 18 19  0  0  0  0  0  0  0  0999 V2000
    5.7587  -14.2414   25.0086 O   0  0  0  0  0  0  0  0  0  0  0  0
    4.6602  -13.8589   25.0368 C   0  0  0  0  0  0  0  0  0  0  0  0
    3.9039  -12.9376   24.0729 N   0  0  0  0  0  0  0  0  0  0  0  0
    4.3056  -12.3682   22.8239 C   0  0  0  0  0  0  0  0  0  0  0  0
    4.7123  -10.9261   22.9295 C   0  0  0  0  0  0  0  0  0  0  0  0
    4.8461  -10.1924   24.0190 N   0  0  0  0  0  0  0  0  0  0  0  0
    5.3592   -8.9259   23.6981 C   0  0  0  0  0  0  0  0  0  0  0  0
    5.7625   -7.9322   24.7468 C   0  0  0  0  0  0  0  0  0  0  0  0
    7.0928   -7.9949   24.9940 F   0  0  0  0  0  0  0  0  0  0  0  0
    5.5118   -6.6635   24.3236 F   0  0  0  0  0  0  0  0  0  0  0  0
    5.1083   -8.0937   25.9210 F   0  0  0  0  0  0  0  0  0  0  0  0
    5.4734   -8.6970   22.3396 C   0  0  0  0  0  0  0  0  0  0  0  0
    5.0671  -10.0937   21.4647 S   0  0  0  0  0  0  0  0  0  0  0  0
    3.7553  -14.3755   26.0898 C   0  0  0  0  0  0  0  0  0  0  0  0
    4.0978  -15.4142   27.0136 C   0  0  0  0  0  0  0  0  0  0  0  0
    3.0166  -15.6529   27.8283 C   0  0  0  0  0  0  0  0  0  0  0  0
    2.0215  -14.7935   27.4565 N   0  0  0  0  0  0  0  0  0  0  0  0
    2.4471  -14.0265   26.3978 C   0  0  0  0  0  0  0  0  0  0  0  0
  1  2  2  0
  2  3  1  0
  3  4  1  0
  4  5  1  0
  5  6  2  0
  6  7  1  0
  7  8  1  0
  8  9  1  0
  8 10  1  0
  8 11  1  0
  7 12  2  0
 12 13  1  0
  2 14  1  0
 14 15  1  0
 15 16  2  0
 16 17  1  0
 17 18  1  0
 13  5  1  0
 18 14  2  0
M  END
>  <inchikey>  (1532) 
WQZXJXXAVCJXFP-UHFFFAOYSA-N

>  <tags>  (1532) 
fragmenstein_placed,CpKRS_FrAncestor_bulkdock_iter2

>  <ref_pdb>  (1532) 
x0654b

>  <energy_score>  (1532) 
-51.124305

>  <distance_score>  (1532) 
0.322662

>  <HIPPO Pose ID>  (1532) 
60944

>  <ref_mols>  (1532) 
x0646a

>  <smiles>  (1532) 
O=C(NCc1nc(C(F)(F)F)cs1)c1cc[nH]c1

>  <HIPPO Compound ID>  (1532) 
365370

>  <alias>  (1532) 
WQZXJXXAVCJXFP-UHFFFAOYSA-N-P55

>  <subsites>  (1532) 


>  <placement_batch>  (1532) 
CpKRS_FrAncestor_bulkdock_iter2

>  <name>  (1532) 
WQZXJXXAVCJXFP-UHFFFAOYSA-N-P55

$$$$
KXEJLSFFYKSZOX-UHFFFAOYSA-N-P55
     RDKit          3D

 15 16  0  0  0  0  0  0  0  0999 V2000
    5.7100  -14.1913   25.0377 O   0  0  0  0  0  0  0  0  0  0  0  0
    4.5960  -13.8554   25.0220 C   0  0  0  0  0  0  0  0  0  0  0  0
    3.8397  -12.9679   24.0269 N   0  0  0  0  0  0  0  0  0  0  0  0
    4.2658  -12.3828   22.7918 C   0  0  0  0  0  0  0  0  0  0  0  0
    4.6583  -10.9433   22.9571 C   0  0  0  0  0  0  0  0  0  0  0  0
    4.6506  -10.2389   24.0727 N   0  0  0  0  0  0  0  0  0  0  0  0
    5.1705   -8.9798   23.8403 C   0  0  0  0  0  0  0  0  0  0  0  0
    5.3727   -7.8647   25.1138 Cl  0  0  0  0  0  0  0  0  0  0  0  0
    5.4690   -8.7003   22.5267 C   0  0  0  0  0  0  0  0  0  0  0  0
    5.1656  -10.0700   21.5608 S   0  0  0  0  0  0  0  0  0  0  0  0
    3.6834  -14.3679   26.0704 C   0  0  0  0  0  0  0  0  0  0  0  0
    4.0237  -15.3881   27.0153 C   0  0  0  0  0  0  0  0  0  0  0  0
    2.9339  -15.6227   27.8200 C   0  0  0  0  0  0  0  0  0  0  0  0
    1.9340  -14.7820   27.4185 N   0  0  0  0  0  0  0  0  0  0  0  0
    2.3707  -14.0202   26.3609 C   0  0  0  0  0  0  0  0  0  0  0  0
  1  2  2  0
  2  3  1  0
  3  4  1  0
  4  5  1  0
  5  6  2  0
  6  7  1  0
  7  8  1  0
  7  9  2  0
  9 10  1  0
  2 11  1  0
 11 12  1  0
 12 13  2  0
 13 14  1  0
 14 15  1  0
 10  5  1  0
 15 11  2  0
M  END
>  <inchikey>  (1533) 
KXEJLSFFYKSZOX-UHFFFAOYSA-N

>  <tags>  (1533) 
fragmenstein_placed,CpKRS_FrAncestor_bulkdock_iter2

>  <ref_pdb>  (1533) 
x0654b

>  <energy_score>  (1533) 
-36.907949

>  <distance_score>  (1533) 
0.323177

>  <HIPPO Pose ID>  (1533) 
60945

>  <ref_mols>  (1533) 
x0646a

>  <smiles>  (1533) 
O=C(NCc1nc(Cl)cs1)c1cc[nH]c1

>  <HIPPO Compound ID>  (1533) 
453128

>  <alias>  (1533) 
KXEJLSFFYKSZOX-UHFFFAOYSA-N-P55

>  <subsites>  (1533) 


>  <placement_batch>  (1533) 
CpKRS_FrAncestor_bulkdock_iter2

>  <name>  (1533) 
KXEJLSFFYKSZOX-UHFFFAOYSA-N-P55

$$$$
PUTNTPIUVWVDSA-UHFFFAOYSA-N-P55
     RDKit          3D

 16 17  0  0  0  0  0  0  0  0999 V2000
    5.7753  -14.0034   25.0704 O   0  0  0  0  0  0  0  0  0  0  0  0
    4.6375  -13.7751   24.9893 C   0  0  0  0  0  0  0  0  0  0  0  0
    3.8565  -12.9775   23.9384 N   0  0  0  0  0  0  0  0  0  0  0  0
    4.2928  -12.3720   22.7160 C   0  0  0  0  0  0  0  0  0  0  0  0
    4.6749  -10.9322   22.9100 C   0  0  0  0  0  0  0  0  0  0  0  0
    4.6719  -10.2511   24.0403 N   0  0  0  0  0  0  0  0  0  0  0  0
    5.1744   -8.9812   23.8290 C   0  0  0  0  0  0  0  0  0  0  0  0
    5.3698   -7.8867   25.1214 Cl  0  0  0  0  0  0  0  0  0  0  0  0
    5.4618   -8.6730   22.5195 C   0  0  0  0  0  0  0  0  0  0  0  0
    5.1671  -10.0265   21.5292 S   0  0  0  0  0  0  0  0  0  0  0  0
    3.7159  -14.3297   25.9947 C   0  0  0  0  0  0  0  0  0  0  0  0
    2.4209  -13.9389   26.3202 C   0  0  0  0  0  0  0  0  0  0  0  0
    1.9529  -14.7503   27.3299 N   0  0  0  0  0  0  0  0  0  0  0  0
    2.9184  -15.6579   27.6703 C   0  0  0  0  0  0  0  0  0  0  0  0
    3.9992  -15.4060   26.8679 C   0  0  0  0  0  0  0  0  0  0  0  0
    5.1424  -16.0967   26.9038 F   0  0  0  0  0  0  0  0  0  0  0  0
  1  2  2  0
  2  3  1  0
  3  4  1  0
  4  5  1  0
  5  6  2  0
  6  7  1  0
  7  8  1  0
  7  9  2  0
  9 10  1  0
  2 11  1  0
 11 12  2  0
 12 13  1  0
 13 14  1  0
 14 15  2  0
 15 16  1  0
 10  5  1  0
 15 11  1  0
M  END
>  <inchikey>  (1534) 
PUTNTPIUVWVDSA-UHFFFAOYSA-N

>  <tags>  (1534) 
fragmenstein_placed,CpKRS_FrAncestor_bulkdock_iter2

>  <ref_pdb>  (1534) 
x0654b

>  <energy_score>  (1534) 
-21.894797

>  <distance_score>  (1534) 
0.30414

>  <HIPPO Pose ID>  (1534) 
60946

>  <ref_mols>  (1534) 
x0646a

>  <smiles>  (1534) 
O=C(NCc1nc(Cl)cs1)c1c[nH]cc1F

>  <HIPPO Compound ID>  (1534) 
453129

>  <alias>  (1534) 
PUTNTPIUVWVDSA-UHFFFAOYSA-N-P55

>  <subsites>  (1534) 


>  <placement_batch>  (1534) 
CpKRS_FrAncestor_bulkdock_iter2

>  <name>  (1534) 
PUTNTPIUVWVDSA-UHFFFAOYSA-N-P55

$$$$
NCHXCKLLTQOFNA-UHFFFAOYSA-N-P55
     RDKit          3D

 18 19  0  0  0  0  0  0  0  0999 V2000
    5.1142  -14.2250   24.5590 O   0  0  0  0  0  0  0  0  0  0  0  0
    4.0350  -13.8906   24.8643 C   0  0  0  0  0  0  0  0  0  0  0  0
    3.0536  -12.9086   24.1718 N   0  0  0  0  0  0  0  0  0  0  0  0
    3.1586  -12.2137   22.9209 C   0  0  0  0  0  0  0  0  0  0  0  0
    4.0427  -11.0016   23.0352 C   0  0  0  0  0  0  0  0  0  0  0  0
    4.0486  -10.1287   24.0270 N   0  0  0  0  0  0  0  0  0  0  0  0
    5.0139   -9.1626   23.8008 C   0  0  0  0  0  0  0  0  0  0  0  0
    5.3288   -7.9450   24.9548 Cl  0  0  0  0  0  0  0  0  0  0  0  0
    5.6480   -9.2433   22.5835 C   0  0  0  0  0  0  0  0  0  0  0  0
    5.0964  -10.6109   21.7307 S   0  0  0  0  0  0  0  0  0  0  0  0
    3.4628  -14.3848   26.2106 C   0  0  2  0  0  0  0  0  0  0  0  0
    4.3372  -13.9667   27.1659 F   0  0  0  0  0  0  0  0  0  0  0  0
    3.4316  -15.8858   26.4485 C   0  0  0  0  0  0  0  0  0  0  0  0
    2.7748  -15.9811   27.8283 C   0  0  0  0  0  0  0  0  0  0  0  0
    1.8122  -14.7882   27.9066 C   0  0  0  0  0  0  0  0  0  0  0  0
    2.0530  -14.0144   26.6217 C   0  0  0  0  0  0  0  0  0  0  0  0
    1.8424  -12.6920   26.7740 F   0  0  0  0  0  0  0  0  0  0  0  0
    1.1517  -14.4098   25.6832 F   0  0  0  0  0  0  0  0  0  0  0  0
  1  2  2  0
  2  3  1  0
  3  4  1  0
  4  5  1  0
  5  6  2  0
  6  7  1  0
  7  8  1  0
  7  9  2  0
  9 10  1  0
  2 11  1  0
 11 12  1  1
 11 13  1  0
 13 14  1  0
 14 15  1  0
 15 16  1  0
 16 17  1  0
 16 18  1  0
 10  5  1  0
 16 11  1  0
M  END
>  <inchikey>  (1535) 
NCHXCKLLTQOFNA-UHFFFAOYSA-N

>  <tags>  (1535) 
fragmenstein_placed,CpKRS_FrAncestor_bulkdock_iter2

>  <ref_pdb>  (1535) 
x0654b

>  <energy_score>  (1535) 
-36.709224

>  <distance_score>  (1535) 
0.559006

>  <HIPPO Pose ID>  (1535) 
60947

>  <ref_mols>  (1535) 
x0646a

>  <smiles>  (1535) 
O=C(NCc1nc(Cl)cs1)C1(F)CCCC1(F)F

>  <HIPPO Compound ID>  (1535) 
353275

>  <alias>  (1535) 
NCHXCKLLTQOFNA-UHFFFAOYSA-N-P55

>  <subsites>  (1535) 


>  <placement_batch>  (1535) 
CpKRS_FrAncestor_bulkdock_iter2

>  <name>  (1535) 
NCHXCKLLTQOFNA-UHFFFAOYSA-N-P55

$$$$
FWHXJXSNCPAEBH-UHFFFAOYSA-N-P55
     RDKit          3D

 14 15  0  0  0  0  0  0  0  0999 V2000
    5.7193  -14.0845   25.0305 O   0  0  0  0  0  0  0  0  0  0  0  0
    4.5901  -13.8046   25.0037 C   0  0  0  0  0  0  0  0  0  0  0  0
    3.8047  -12.9366   24.0139 N   0  0  0  0  0  0  0  0  0  0  0  0
    4.2196  -12.3056   22.7952 C   0  0  0  0  0  0  0  0  0  0  0  0
    4.5446  -10.8537   23.0091 C   0  0  0  0  0  0  0  0  0  0  0  0
    4.3097  -10.1410   24.0965 N   0  0  0  0  0  0  0  0  0  0  0  0
    4.8292   -8.8700   23.9503 C   0  0  0  0  0  0  0  0  0  0  0  0
    5.3686   -8.5883   22.7165 C   0  0  0  0  0  0  0  0  0  0  0  0
    5.2655   -9.9681   21.7149 S   0  0  0  0  0  0  0  0  0  0  0  0
    3.6900  -14.3629   26.0376 C   0  0  0  0  0  0  0  0  0  0  0  0
    4.0339  -15.4200   26.9383 C   0  0  0  0  0  0  0  0  0  0  0  0
    2.9524  -15.6731   27.7490 C   0  0  0  0  0  0  0  0  0  0  0  0
    1.9574  -14.8043   27.3967 N   0  0  0  0  0  0  0  0  0  0  0  0
    2.3894  -14.0048   26.3663 C   0  0  0  0  0  0  0  0  0  0  0  0
  1  2  2  0
  2  3  1  0
  3  4  1  0
  4  5  1  0
  5  6  2  0
  6  7  1  0
  7  8  2  0
  8  9  1  0
  2 10  1  0
 10 11  1  0
 11 12  2  0
 12 13  1  0
 13 14  1  0
  9  5  1  0
 14 10  2  0
M  END
>  <inchikey>  (1536) 
FWHXJXSNCPAEBH-UHFFFAOYSA-N

>  <tags>  (1536) 
fragmenstein_placed,CpKRS_FrAncestor_bulkdock_iter2

>  <ref_pdb>  (1536) 
x0654b

>  <energy_score>  (1536) 
-12.808339

>  <distance_score>  (1536) 
0.417464

>  <HIPPO Pose ID>  (1536) 
60948

>  <ref_mols>  (1536) 
x0646a

>  <smiles>  (1536) 
O=C(NCc1nccs1)c1cc[nH]c1

>  <HIPPO Compound ID>  (1536) 
385412

>  <alias>  (1536) 
FWHXJXSNCPAEBH-UHFFFAOYSA-N-P55

>  <subsites>  (1536) 


>  <placement_batch>  (1536) 
CpKRS_FrAncestor_bulkdock_iter2

>  <name>  (1536) 
FWHXJXSNCPAEBH-UHFFFAOYSA-N-P55

$$$$
DHJQYHJBWIHRPY-UHFFFAOYSA-N-P55
     RDKit          3D

 15 16  0  0  0  0  0  0  0  0999 V2000
    5.7551  -13.9644   24.7154 O   0  0  0  0  0  0  0  0  0  0  0  0
    4.6317  -13.6678   24.6882 C   0  0  0  0  0  0  0  0  0  0  0  0
    3.8505  -12.8370   23.6707 N   0  0  0  0  0  0  0  0  0  0  0  0
    4.2983  -12.1150   22.5208 C   0  0  0  0  0  0  0  0  0  0  0  0
    4.5929  -10.6864   22.8691 C   0  0  0  0  0  0  0  0  0  0  0  0
    4.3139  -10.0809   24.0099 N   0  0  0  0  0  0  0  0  0  0  0  0
    4.8137   -8.7947   23.9914 C   0  0  0  0  0  0  0  0  0  0  0  0
    5.3813   -8.3969   22.8032 C   0  0  0  0  0  0  0  0  0  0  0  0
    5.3331   -9.6824   21.6806 S   0  0  0  0  0  0  0  0  0  0  0  0
    3.7465  -14.1772   25.7498 C   0  0  0  0  0  0  0  0  0  0  0  0
    2.4010  -13.9326   25.9989 C   0  0  0  0  0  0  0  0  0  0  0  0
    2.0319  -14.6370   27.1201 N   0  0  0  0  0  0  0  0  0  0  0  0
    3.1179  -15.2948   27.6063 C   0  0  0  0  0  0  0  0  0  0  0  0
    3.1868  -16.2851   29.2023 Br  0  0  0  0  0  0  0  0  0  0  0  0
    4.1781  -15.0760   26.7730 C   0  0  0  0  0  0  0  0  0  0  0  0
  1  2  2  0
  2  3  1  0
  3  4  1  0
  4  5  1  0
  5  6  2  0
  6  7  1  0
  7  8  2  0
  8  9  1  0
  2 10  1  0
 10 11  2  0
 11 12  1  0
 12 13  1  0
 13 14  1  0
 13 15  2  0
  9  5  1  0
 15 10  1  0
M  END
>  <inchikey>  (1537) 
DHJQYHJBWIHRPY-UHFFFAOYSA-N

>  <tags>  (1537) 
fragmenstein_placed,CpKRS_FrAncestor_bulkdock_iter2

>  <ref_pdb>  (1537) 
x0654b

>  <energy_score>  (1537) 
-12.30833

>  <distance_score>  (1537) 
0.479377

>  <HIPPO Pose ID>  (1537) 
60949

>  <ref_mols>  (1537) 
x0646a

>  <smiles>  (1537) 
O=C(NCc1nccs1)c1c[nH]c(Br)c1

>  <HIPPO Compound ID>  (1537) 
453130

>  <alias>  (1537) 
DHJQYHJBWIHRPY-UHFFFAOYSA-N-P55

>  <subsites>  (1537) 


>  <placement_batch>  (1537) 
CpKRS_FrAncestor_bulkdock_iter2

>  <name>  (1537) 
DHJQYHJBWIHRPY-UHFFFAOYSA-N-P55

$$$$
DHRLMLGODUFPSS-UHFFFAOYSA-N-P55
     RDKit          3D

 18 19  0  0  0  0  0  0  0  0999 V2000
    5.7281  -14.0277   24.8397 O   0  0  0  0  0  0  0  0  0  0  0  0
    4.6111  -13.7116   24.7681 C   0  0  0  0  0  0  0  0  0  0  0  0
    3.8808  -12.8806   23.7101 N   0  0  0  0  0  0  0  0  0  0  0  0
    4.3829  -12.1826   22.5664 C   0  0  0  0  0  0  0  0  0  0  0  0
    4.6427  -10.7399   22.8889 C   0  0  0  0  0  0  0  0  0  0  0  0
    4.3770  -10.1259   24.0283 N   0  0  0  0  0  0  0  0  0  0  0  0
    4.8376   -8.8256   23.9791 C   0  0  0  0  0  0  0  0  0  0  0  0
    5.3642   -8.4286   22.7717 C   0  0  0  0  0  0  0  0  0  0  0  0
    5.3242   -9.7314   21.6687 S   0  0  0  0  0  0  0  0  0  0  0  0
    3.6740  -14.1849   25.8082 C   0  0  0  0  0  0  0  0  0  0  0  0
    2.3312  -13.8929   26.0022 C   0  0  0  0  0  0  0  0  0  0  0  0
    1.8895  -14.5654   27.1139 N   0  0  0  0  0  0  0  0  0  0  0  0
    2.9287  -15.2593   27.6747 C   0  0  0  0  0  0  0  0  0  0  0  0
    2.7677  -15.9812   28.9430 C   0  0  0  0  0  0  0  0  0  0  0  0
    3.2665  -17.2382   28.9110 F   0  0  0  0  0  0  0  0  0  0  0  0
    3.3729  -15.3482   29.9709 F   0  0  0  0  0  0  0  0  0  0  0  0
    1.4590  -16.0953   29.2959 F   0  0  0  0  0  0  0  0  0  0  0  0
    4.0278  -15.0827   26.8628 C   0  0  0  0  0  0  0  0  0  0  0  0
  1  2  2  0
  2  3  1  0
  3  4  1  0
  4  5  1  0
  5  6  2  0
  6  7  1  0
  7  8  2  0
  8  9  1  0
  2 10  1  0
 10 11  2  0
 11 12  1  0
 12 13  1  0
 13 14  1  0
 14 15  1  0
 14 16  1  0
 14 17  1  0
 13 18  2  0
  9  5  1  0
 18 10  1  0
M  END
>  <inchikey>  (1538) 
DHRLMLGODUFPSS-UHFFFAOYSA-N

>  <tags>  (1538) 
fragmenstein_placed,CpKRS_FrAncestor_bulkdock_iter2

>  <ref_pdb>  (1538) 
x0654b

>  <energy_score>  (1538) 
-40.272035

>  <distance_score>  (1538) 
0.470729

>  <HIPPO Pose ID>  (1538) 
60950

>  <ref_mols>  (1538) 
x0646a

>  <smiles>  (1538) 
O=C(NCc1nccs1)c1c[nH]c(C(F)(F)F)c1

>  <HIPPO Compound ID>  (1538) 
364620

>  <alias>  (1538) 
DHRLMLGODUFPSS-UHFFFAOYSA-N-P55

>  <subsites>  (1538) 


>  <placement_batch>  (1538) 
CpKRS_FrAncestor_bulkdock_iter2

>  <name>  (1538) 
DHRLMLGODUFPSS-UHFFFAOYSA-N-P55

$$$$
IQAIEQJVKVJBAG-UHFFFAOYSA-N-P47
     RDKit          3D

 12 12  0  0  0  0  0  0  0  0999 V2000
    3.2851    4.4665   42.4997 O   0  0  0  0  0  0  0  0  0  0  0  0
    2.8712    5.1635   43.3324 C   0  0  0  0  0  0  0  0  0  0  0  0
    2.3441    6.5964   43.2540 N   0  0  0  0  0  0  0  0  0  0  0  0
    2.2994    7.5182   42.1484 C   0  0  0  0  0  0  0  0  0  0  0  0
    3.6752    7.7105   41.5391 C   0  0  0  0  0  0  0  0  0  0  0  0
    4.5504    8.0364   42.5315 F   0  0  0  0  0  0  0  0  0  0  0  0
    2.8401    4.6265   44.7025 C   0  0  0  0  0  0  0  0  0  0  0  0
    3.4904    3.3756   45.0249 C   0  0  0  0  0  0  0  0  0  0  0  0
    3.3998    2.9165   46.2689 N   0  0  0  0  0  0  0  0  0  0  0  0
    2.4628    3.9753   47.1227 S   0  0  0  0  0  0  0  0  0  0  0  0
    2.2531    5.0976   45.8616 C   0  0  0  0  0  0  0  0  0  0  0  0
    1.2913    6.7184   46.1664 Br  0  0  0  0  0  0  0  0  0  0  0  0
  1  2  2  0
  2  3  1  0
  3  4  1  0
  4  5  1  0
  5  6  1  0
  2  7  1  0
  7  8  1  0
  8  9  2  0
  9 10  1  0
 10 11  1  0
 11 12  1  0
 11  7  2  0
M  END
>  <inchikey>  (1539) 
IQAIEQJVKVJBAG-UHFFFAOYSA-N

>  <tags>  (1539) 
fragmenstein_placed,CpKRS_FrAncestor_bulkdock_iter2

>  <ref_pdb>  (1539) 
x0654b

>  <energy_score>  (1539) 
-6.310583

>  <distance_score>  (1539) 
0.412964

>  <HIPPO Pose ID>  (1539) 
60953

>  <ref_mols>  (1539) 
x0504c

>  <smiles>  (1539) 
O=C(NCCF)c1cnsc1Br

>  <HIPPO Compound ID>  (1539) 
267977

>  <alias>  (1539) 
IQAIEQJVKVJBAG-UHFFFAOYSA-N-P47

>  <subsites>  (1539) 


>  <placement_batch>  (1539) 
CpKRS_FrAncestor_bulkdock_iter2

>  <name>  (1539) 
IQAIEQJVKVJBAG-UHFFFAOYSA-N-P47

$$$$
SFXJOEWCFFGWEZ-UHFFFAOYSA-N-P47
     RDKit          3D

 11 11  0  0  0  0  0  0  0  0999 V2000
    3.5184    4.6768   42.4413 O   0  0  0  0  0  0  0  0  0  0  0  0
    2.9715    5.1874   43.3327 C   0  0  0  0  0  0  0  0  0  0  0  0
    2.2708    6.5475   43.4211 N   0  0  0  0  0  0  0  0  0  0  0  0
    2.1736    7.6156   42.4578 C   0  0  0  0  0  0  0  0  0  0  0  0
    3.4803    7.8397   41.7147 C   0  0  0  0  0  0  0  0  0  0  0  0
    4.4891    7.9839   42.6192 F   0  0  0  0  0  0  0  0  0  0  0  0
    2.9289    4.5303   44.6416 C   0  0  0  0  0  0  0  0  0  0  0  0
    3.5799    3.3400   44.9223 C   0  0  0  0  0  0  0  0  0  0  0  0
    3.2669    2.9665   46.5546 S   0  0  0  0  0  0  0  0  0  0  0  0
    2.3379    4.3243   46.8041 N   0  0  0  0  0  0  0  0  0  0  0  0
    2.2369    5.0784   45.7233 N   0  0  0  0  0  0  0  0  0  0  0  0
  1  2  2  0
  2  3  1  0
  3  4  1  0
  4  5  1  0
  5  6  1  0
  2  7  1  0
  7  8  2  0
  8  9  1  0
  9 10  1  0
 10 11  2  0
 11  7  1  0
M  END
>  <inchikey>  (1540) 
SFXJOEWCFFGWEZ-UHFFFAOYSA-N

>  <tags>  (1540) 
fragmenstein_placed,CpKRS_FrAncestor_bulkdock_iter2

>  <ref_pdb>  (1540) 
x0654b

>  <energy_score>  (1540) 
-59.534592

>  <distance_score>  (1540) 
0.440703

>  <HIPPO Pose ID>  (1540) 
60956

>  <ref_mols>  (1540) 
x0504c

>  <smiles>  (1540) 
O=C(NCCF)c1csnn1

>  <HIPPO Compound ID>  (1540) 
202656

>  <alias>  (1540) 
SFXJOEWCFFGWEZ-UHFFFAOYSA-N-P47

>  <subsites>  (1540) 


>  <placement_batch>  (1540) 
CpKRS_FrAncestor_bulkdock_iter2

>  <name>  (1540) 
SFXJOEWCFFGWEZ-UHFFFAOYSA-N-P47

$$$$
OLLWWLWCSXFBBV-UHFFFAOYSA-N-P49
     RDKit          3D

 15 15  0  0  0  0  0  0  0  0999 V2000
    4.8772  -13.7483   24.3832 O   0  0  0  0  0  0  0  0  0  0  0  0
    3.8892  -13.2146   24.6844 C   0  0  0  0  0  0  0  0  0  0  0  0
    3.2420  -11.9393   24.1356 N   0  0  0  0  0  0  0  0  0  0  0  0
    3.7190  -10.9931   23.1616 C   0  0  0  0  0  0  0  0  0  0  0  0
    4.9209  -10.2063   23.6651 C   0  0  0  0  0  0  0  0  0  0  0  0
    4.5403   -9.4060   24.6995 F   0  0  0  0  0  0  0  0  0  0  0  0
    3.0207  -13.7562   25.7295 C   0  0  0  0  0  0  0  0  0  0  0  0
    1.7564  -13.2536   26.0261 N   0  0  0  0  0  0  0  0  0  0  0  0
    1.3660  -13.9986   27.0332 C   0  0  0  0  0  0  0  0  0  0  0  0
    2.2388  -14.9605   27.4225 O   0  0  0  0  0  0  0  0  0  0  0  0
    3.3152  -14.7962   26.5831 C   0  0  0  0  0  0  0  0  0  0  0  0
    4.4842  -15.6698   26.7644 C   0  0  0  0  0  0  0  0  0  0  0  0
    4.4975  -16.7048   25.8859 F   0  0  0  0  0  0  0  0  0  0  0  0
    4.5016  -16.2114   28.0117 F   0  0  0  0  0  0  0  0  0  0  0  0
    5.6714  -15.0269   26.6286 F   0  0  0  0  0  0  0  0  0  0  0  0
  1  2  2  0
  2  3  1  0
  3  4  1  0
  4  5  1  0
  5  6  1  0
  2  7  1  0
  7  8  1  0
  8  9  2  0
  9 10  1  0
 10 11  1  0
 11 12  1  0
 12 13  1  0
 12 14  1  0
 12 15  1  0
 11  7  2  0
M  END
>  <inchikey>  (1541) 
OLLWWLWCSXFBBV-UHFFFAOYSA-N

>  <tags>  (1541) 
fragmenstein_placed,CpKRS_FrAncestor_bulkdock_iter2

>  <ref_pdb>  (1541) 
x0654b

>  <energy_score>  (1541) 
-6.974057

>  <distance_score>  (1541) 
0.355945

>  <HIPPO Pose ID>  (1541) 
60958

>  <ref_mols>  (1541) 
x0504b

>  <smiles>  (1541) 
O=C(NCCF)c1ncoc1C(F)(F)F

>  <HIPPO Compound ID>  (1541) 
394310

>  <alias>  (1541) 
OLLWWLWCSXFBBV-UHFFFAOYSA-N-P49

>  <subsites>  (1541) 


>  <placement_batch>  (1541) 
CpKRS_FrAncestor_bulkdock_iter2

>  <name>  (1541) 
OLLWWLWCSXFBBV-UHFFFAOYSA-N-P49

$$$$
FYKZDJGTOPKVII-UHFFFAOYSA-N-P47
     RDKit          3D

 15 15  0  0  0  0  0  0  0  0999 V2000
    3.3334    4.6438   42.4794 O   0  0  0  0  0  0  0  0  0  0  0  0
    2.9495    5.1332   43.4612 C   0  0  0  0  0  0  0  0  0  0  0  0
    2.3436    6.5171   43.7093 N   0  0  0  0  0  0  0  0  0  0  0  0
    2.1657    7.6375   42.8159 C   0  0  0  0  0  0  0  0  0  0  0  0
    3.3632    7.8501   41.9035 C   0  0  0  0  0  0  0  0  0  0  0  0
    4.4879    7.9513   42.6638 F   0  0  0  0  0  0  0  0  0  0  0  0
    3.0262    4.3965   44.7068 C   0  0  0  0  0  0  0  0  0  0  0  0
    2.4418    4.8651   45.8578 O   0  0  0  0  0  0  0  0  0  0  0  0
    2.7151    3.9039   46.7830 C   0  0  0  0  0  0  0  0  0  0  0  0
    3.4267    2.8913   46.3410 N   0  0  0  0  0  0  0  0  0  0  0  0
    3.6322    3.1893   44.9969 C   0  0  0  0  0  0  0  0  0  0  0  0
    4.3750    2.3134   44.0429 C   0  0  0  0  0  0  0  0  0  0  0  0
    5.4511    2.9377   43.5005 F   0  0  0  0  0  0  0  0  0  0  0  0
    3.5891    1.8842   43.0258 F   0  0  0  0  0  0  0  0  0  0  0  0
    4.8597    1.1917   44.6455 F   0  0  0  0  0  0  0  0  0  0  0  0
  1  2  2  0
  2  3  1  0
  3  4  1  0
  4  5  1  0
  5  6  1  0
  2  7  1  0
  7  8  1  0
  8  9  1  0
  9 10  2  0
 10 11  1  0
 11 12  1  0
 12 13  1  0
 12 14  1  0
 12 15  1  0
 11  7  2  0
M  END
>  <inchikey>  (1542) 
FYKZDJGTOPKVII-UHFFFAOYSA-N

>  <tags>  (1542) 
fragmenstein_placed,CpKRS_FrAncestor_bulkdock_iter2

>  <ref_pdb>  (1542) 
x0654b

>  <energy_score>  (1542) 
-1.978622

>  <distance_score>  (1542) 
0.380149

>  <HIPPO Pose ID>  (1542) 
60965

>  <ref_mols>  (1542) 
x0504c

>  <smiles>  (1542) 
O=C(NCCF)c1ocnc1C(F)(F)F

>  <HIPPO Compound ID>  (1542) 
453131

>  <alias>  (1542) 
FYKZDJGTOPKVII-UHFFFAOYSA-N-P47

>  <subsites>  (1542) 


>  <placement_batch>  (1542) 
CpKRS_FrAncestor_bulkdock_iter2

>  <name>  (1542) 
FYKZDJGTOPKVII-UHFFFAOYSA-N-P47

$$$$
HNUPNSDSRGDRBL-UHFFFAOYSA-N-P47
     RDKit          3D

 12 12  0  0  0  0  0  0  0  0999 V2000
    2.5429    4.7050   42.4665 O   0  0  0  0  0  0  0  0  0  0  0  0
    2.5264    5.3299   43.4472 C   0  0  0  0  0  0  0  0  0  0  0  0
    2.3370    6.8378   43.6627 N   0  0  0  0  0  0  0  0  0  0  0  0
    2.2216    7.9131   42.7093 C   0  0  0  0  0  0  0  0  0  0  0  0
    3.4259    7.9520   41.7848 C   0  0  0  0  0  0  0  0  0  0  0  0
    4.5568    7.9991   42.5445 F   0  0  0  0  0  0  0  0  0  0  0  0
    2.7399    4.6487   44.7145 C   0  0  0  0  0  0  0  0  0  0  0  0
    2.0212    5.1702   46.1754 S   0  0  0  0  0  0  0  0  0  0  0  0
    2.5747    3.9178   47.1123 N   0  0  0  0  0  0  0  0  0  0  0  0
    3.3063    3.1163   46.3436 C   0  0  0  0  0  0  0  0  0  0  0  0
    3.4362    3.4899   44.9848 C   0  0  0  0  0  0  0  0  0  0  0  0
    4.4446    2.4552   43.7734 Br  0  0  0  0  0  0  0  0  0  0  0  0
  1  2  2  0
  2  3  1  0
  3  4  1  0
  4  5  1  0
  5  6  1  0
  2  7  1  0
  7  8  1  0
  8  9  1  0
  9 10  2  0
 10 11  1  0
 11 12  1  0
 11  7  2  0
M  END
>  <inchikey>  (1543) 
HNUPNSDSRGDRBL-UHFFFAOYSA-N

>  <tags>  (1543) 
fragmenstein_placed,CpKRS_FrAncestor_bulkdock_iter2

>  <ref_pdb>  (1543) 
x0654b

>  <energy_score>  (1543) 
-4.092692

>  <distance_score>  (1543) 
0.566019

>  <HIPPO Pose ID>  (1543) 
60968

>  <ref_mols>  (1543) 
x0504c

>  <smiles>  (1543) 
O=C(NCCF)c1sncc1Br

>  <HIPPO Compound ID>  (1543) 
267974

>  <alias>  (1543) 
HNUPNSDSRGDRBL-UHFFFAOYSA-N-P47

>  <subsites>  (1543) 


>  <placement_batch>  (1543) 
CpKRS_FrAncestor_bulkdock_iter2

>  <name>  (1543) 
HNUPNSDSRGDRBL-UHFFFAOYSA-N-P47

$$$$
WIZZMZMMLUMVBG-UHFFFAOYSA-N-P47
     RDKit          3D

 15 15  0  0  0  0  0  0  0  0999 V2000
    3.4417    4.6372   42.3880 O   0  0  0  0  0  0  0  0  0  0  0  0
    2.9602    5.1839   43.2938 C   0  0  0  0  0  0  0  0  0  0  0  0
    2.3110    6.5692   43.3874 N   0  0  0  0  0  0  0  0  0  0  0  0
    2.1995    7.6199   42.4062 C   0  0  0  0  0  0  0  0  0  0  0  0
    3.5101    7.8419   41.6696 C   0  0  0  0  0  0  0  0  0  0  0  0
    4.5063    8.0129   42.5842 F   0  0  0  0  0  0  0  0  0  0  0  0
    2.9686    4.5060   44.5903 C   0  0  0  0  0  0  0  0  0  0  0  0
    2.2041    5.1189   45.9892 S   0  0  0  0  0  0  0  0  0  0  0  0
    2.6157    3.8676   46.9864 N   0  0  0  0  0  0  0  0  0  0  0  0
    3.3370    2.9997   46.2882 C   0  0  0  0  0  0  0  0  0  0  0  0
    3.5758    3.2957   44.9131 C   0  0  0  0  0  0  0  0  0  0  0  0
    4.3356    2.4118   43.9906 C   0  0  0  0  0  0  0  0  0  0  0  0
    4.8056    1.3134   44.6465 F   0  0  0  0  0  0  0  0  0  0  0  0
    5.4242    3.0191   43.4639 F   0  0  0  0  0  0  0  0  0  0  0  0
    3.5689    1.9441   42.9803 F   0  0  0  0  0  0  0  0  0  0  0  0
  1  2  2  0
  2  3  1  0
  3  4  1  0
  4  5  1  0
  5  6  1  0
  2  7  1  0
  7  8  1  0
  8  9  1  0
  9 10  2  0
 10 11  1  0
 11 12  1  0
 12 13  1  0
 12 14  1  0
 12 15  1  0
 11  7  2  0
M  END
>  <inchikey>  (1544) 
WIZZMZMMLUMVBG-UHFFFAOYSA-N

>  <tags>  (1544) 
fragmenstein_placed,CpKRS_FrAncestor_bulkdock_iter2

>  <ref_pdb>  (1544) 
x0654b

>  <energy_score>  (1544) 
-0.909376

>  <distance_score>  (1544) 
0.334169

>  <HIPPO Pose ID>  (1544) 
60971

>  <ref_mols>  (1544) 
x0504c

>  <smiles>  (1544) 
O=C(NCCF)c1sncc1C(F)(F)F

>  <HIPPO Compound ID>  (1544) 
394312

>  <alias>  (1544) 
WIZZMZMMLUMVBG-UHFFFAOYSA-N-P47

>  <subsites>  (1544) 


>  <placement_batch>  (1544) 
CpKRS_FrAncestor_bulkdock_iter2

>  <name>  (1544) 
WIZZMZMMLUMVBG-UHFFFAOYSA-N-P47

$$$$
YVMPXBUZTVMOSB-UHFFFAOYSA-N-P49
     RDKit          3D

 13 13  0  0  0  0  0  0  0  0999 V2000
    4.2628  -13.9560   23.9808 O   0  0  0  0  0  0  0  0  0  0  0  0
    3.5341  -13.2793   24.5850 C   0  0  0  0  0  0  0  0  0  0  0  0
    3.0874  -11.8272   24.3400 N   0  0  0  0  0  0  0  0  0  0  0  0
    3.5166  -10.8698   23.3522 C   0  0  0  0  0  0  0  0  0  0  0  0
    4.8467  -10.2295   23.7179 C   0  0  0  0  0  0  0  0  0  0  0  0
    4.6760   -9.4440   24.8180 F   0  0  0  0  0  0  0  0  0  0  0  0
    2.8755  -13.8253   25.7679 C   0  0  0  0  0  0  0  0  0  0  0  0
    1.3219  -13.3186   26.2743 S   0  0  0  0  0  0  0  0  0  0  0  0
    1.2136  -14.3145   27.5922 N   0  0  0  0  0  0  0  0  0  0  0  0
    2.3396  -15.0206   27.6620 C   0  0  0  0  0  0  0  0  0  0  0  0
    2.5319  -16.0796   28.9885 Cl  0  0  0  0  0  0  0  0  0  0  0  0
    3.3029  -14.8214   26.6281 C   0  0  0  0  0  0  0  0  0  0  0  0
    4.7818  -15.6783   26.5300 Cl  0  0  0  0  0  0  0  0  0  0  0  0
  1  2  2  0
  2  3  1  0
  3  4  1  0
  4  5  1  0
  5  6  1  0
  2  7  1  0
  7  8  1  0
  8  9  1  0
  9 10  2  0
 10 11  1  0
 10 12  1  0
 12 13  1  0
 12  7  2  0
M  END
>  <inchikey>  (1545) 
YVMPXBUZTVMOSB-UHFFFAOYSA-N

>  <tags>  (1545) 
fragmenstein_placed,CpKRS_FrAncestor_bulkdock_iter2

>  <ref_pdb>  (1545) 
x0654b

>  <energy_score>  (1545) 
-7.111409

>  <distance_score>  (1545) 
0.502804

>  <HIPPO Pose ID>  (1545) 
60973

>  <ref_mols>  (1545) 
x0504b

>  <smiles>  (1545) 
O=C(NCCF)c1snc(Cl)c1Cl

>  <HIPPO Compound ID>  (1545) 
270784

>  <alias>  (1545) 
YVMPXBUZTVMOSB-UHFFFAOYSA-N-P49

>  <subsites>  (1545) 


>  <placement_batch>  (1545) 
CpKRS_FrAncestor_bulkdock_iter2

>  <name>  (1545) 
YVMPXBUZTVMOSB-UHFFFAOYSA-N-P49

$$$$
BBIHBQKIRVHWQZ-UHFFFAOYSA-N-P47
     RDKit          3D

 19 19  0  0  0  0  0  0  0  0999 V2000
    3.5579    4.3345   42.4151 O   0  0  0  0  0  0  0  0  0  0  0  0
    3.0402    4.8991   43.2864 C   0  0  0  0  0  0  0  0  0  0  0  0
    2.3348    6.2517   43.3077 N   0  0  0  0  0  0  0  0  0  0  0  0
    2.1942    7.2549   42.2753 C   0  0  0  0  0  0  0  0  0  0  0  0
    3.5434    7.5845   41.6454 C   0  0  2  0  0  0  0  0  0  0  0  0
    4.3387    8.1319   42.6165 F   0  0  0  0  0  0  0  0  0  0  0  0
    3.3698    8.5303   40.4758 C   0  0  0  0  0  0  0  0  0  0  0  0
    2.5761    9.5808   40.7686 F   0  0  0  0  0  0  0  0  0  0  0  0
    2.8036    7.8984   39.4182 F   0  0  0  0  0  0  0  0  0  0  0  0
    4.5593    9.0204   40.0591 F   0  0  0  0  0  0  0  0  0  0  0  0
    3.0529    4.3063   44.6073 C   0  0  0  0  0  0  0  0  0  0  0  0
    2.4227    4.8784   45.6821 O   0  0  0  0  0  0  0  0  0  0  0  0
    2.6646    4.0080   46.7046 C   0  0  0  0  0  0  0  0  0  0  0  0
    3.3945    2.9612   46.3860 N   0  0  0  0  0  0  0  0  0  0  0  0
    3.6500    3.1363   45.0318 C   0  0  0  0  0  0  0  0  0  0  0  0
    4.4167    2.1869   44.1728 C   0  0  0  0  0  0  0  0  0  0  0  0
    5.5187    2.7626   43.6292 F   0  0  0  0  0  0  0  0  0  0  0  0
    4.8596    1.1022   44.8656 F   0  0  0  0  0  0  0  0  0  0  0  0
    3.6603    1.7025   43.1570 F   0  0  0  0  0  0  0  0  0  0  0  0
  1  2  2  0
  2  3  1  0
  3  4  1  0
  4  5  1  0
  5  6  1  1
  5  7  1  0
  7  8  1  0
  7  9  1  0
  7 10  1  0
  2 11  1  0
 11 12  1  0
 12 13  1  0
 13 14  2  0
 14 15  1  0
 15 16  1  0
 16 17  1  0
 16 18  1  0
 16 19  1  0
 15 11  2  0
M  END
>  <inchikey>  (1546) 
BBIHBQKIRVHWQZ-UHFFFAOYSA-N

>  <tags>  (1546) 
fragmenstein_placed,CpKRS_FrAncestor_bulkdock_iter2

>  <ref_pdb>  (1546) 
x0654b

>  <energy_score>  (1546) 
-12.109954

>  <distance_score>  (1546) 
0.448025

>  <HIPPO Pose ID>  (1546) 
60977

>  <ref_mols>  (1546) 
x0504c

>  <smiles>  (1546) 
O=C(NCC(F)C(F)(F)F)c1ocnc1C(F)(F)F

>  <HIPPO Compound ID>  (1546) 
412323

>  <alias>  (1546) 
BBIHBQKIRVHWQZ-UHFFFAOYSA-N-P47

>  <subsites>  (1546) 


>  <placement_batch>  (1546) 
CpKRS_FrAncestor_bulkdock_iter2

>  <name>  (1546) 
BBIHBQKIRVHWQZ-UHFFFAOYSA-N-P47

$$$$
DHHFKEJRDSJZKI-UHFFFAOYSA-N-P49
     RDKit          3D

 14 14  0  0  0  0  0  0  0  0999 V2000
    4.5206  -13.6826   24.2867 O   0  0  0  0  0  0  0  0  0  0  0  0
    3.6324  -13.0654   24.7118 C   0  0  0  0  0  0  0  0  0  0  0  0
    3.1240  -11.6649   24.3370 N   0  0  0  0  0  0  0  0  0  0  0  0
    3.5452  -10.7625   23.2899 C   0  0  0  0  0  0  0  0  0  0  0  0
    4.8626  -10.0405   23.5697 C   0  0  1  0  0  0  0  0  0  0  0  0
    5.1741   -9.2615   22.4987 F   0  0  0  0  0  0  0  0  0  0  0  0
    4.7212   -8.9698   24.9822 Cl  0  0  0  0  0  0  0  0  0  0  0  0
    2.8161  -13.6730   25.7849 C   0  0  0  0  0  0  0  0  0  0  0  0
    3.2268  -14.7947   26.6086 C   0  0  0  0  0  0  0  0  0  0  0  0
    4.7232  -15.6198   26.5131 Cl  0  0  0  0  0  0  0  0  0  0  0  0
    2.3766  -15.2338   27.5376 N   0  0  0  0  0  0  0  0  0  0  0  0
    1.0077  -14.3263   27.4523 S   0  0  0  0  0  0  0  0  0  0  0  0
    1.5343  -13.3368   26.1827 C   0  0  0  0  0  0  0  0  0  0  0  0
    0.4379  -12.1487   25.6014 Cl  0  0  0  0  0  0  0  0  0  0  0  0
  1  2  2  0
  2  3  1  0
  3  4  1  0
  4  5  1  0
  5  6  1  6
  5  7  1  0
  2  8  1  0
  8  9  1  0
  9 10  1  0
  9 11  2  0
 11 12  1  0
 12 13  1  0
 13 14  1  0
 13  8  2  0
M  END
>  <inchikey>  (1547) 
DHHFKEJRDSJZKI-UHFFFAOYSA-N

>  <tags>  (1547) 
fragmenstein_placed,CpKRS_FrAncestor_bulkdock_iter2

>  <ref_pdb>  (1547) 
x0654b

>  <energy_score>  (1547) 
-25.704522

>  <distance_score>  (1547) 
0.457153

>  <HIPPO Pose ID>  (1547) 
60979

>  <ref_mols>  (1547) 
x0504b

>  <smiles>  (1547) 
O=C(NCC(F)Cl)c1c(Cl)nsc1Cl

>  <HIPPO Compound ID>  (1547) 
382640

>  <alias>  (1547) 
DHHFKEJRDSJZKI-UHFFFAOYSA-N-P49

>  <subsites>  (1547) 


>  <placement_batch>  (1547) 
CpKRS_FrAncestor_bulkdock_iter2

>  <name>  (1547) 
DHHFKEJRDSJZKI-UHFFFAOYSA-N-P49

$$$$
SFSXERDNWWWTRY-UHFFFAOYSA-N-P49
     RDKit          3D

 13 13  0  0  0  0  0  0  0  0999 V2000
    4.7745  -13.4728   24.5826 O   0  0  0  0  0  0  0  0  0  0  0  0
    3.7448  -12.9728   24.7860 C   0  0  0  0  0  0  0  0  0  0  0  0
    3.1296  -11.6950   24.2060 N   0  0  0  0  0  0  0  0  0  0  0  0
    3.6118  -10.8054   23.1766 C   0  0  0  0  0  0  0  0  0  0  0  0
    4.8832  -10.0420   23.5490 C   0  0  1  0  0  0  0  0  0  0  0  0
    5.2458   -9.2527   22.5017 F   0  0  0  0  0  0  0  0  0  0  0  0
    4.6159   -8.9791   24.9491 Cl  0  0  0  0  0  0  0  0  0  0  0  0
    2.8599  -13.6124   25.7835 C   0  0  0  0  0  0  0  0  0  0  0  0
    3.3236  -14.7127   26.6044 C   0  0  0  0  0  0  0  0  0  0  0  0
    2.4868  -15.2372   27.4966 N   0  0  0  0  0  0  0  0  0  0  0  0
    1.0590  -14.4203   27.3875 S   0  0  0  0  0  0  0  0  0  0  0  0
    1.5457  -13.3652   26.1409 C   0  0  0  0  0  0  0  0  0  0  0  0
    0.3066  -12.0876   25.4435 Br  0  0  0  0  0  0  0  0  0  0  0  0
  1  2  2  0
  2  3  1  0
  3  4  1  0
  4  5  1  0
  5  6  1  6
  5  7  1  0
  2  8  1  0
  8  9  1  0
  9 10  2  0
 10 11  1  0
 11 12  1  0
 12 13  1  0
 12  8  2  0
M  END
>  <inchikey>  (1548) 
SFSXERDNWWWTRY-UHFFFAOYSA-N

>  <tags>  (1548) 
fragmenstein_placed,CpKRS_FrAncestor_bulkdock_iter2

>  <ref_pdb>  (1548) 
x0654b

>  <energy_score>  (1548) 
-19.691755

>  <distance_score>  (1548) 
0.437028

>  <HIPPO Pose ID>  (1548) 
60985

>  <ref_mols>  (1548) 
x0504b

>  <smiles>  (1548) 
O=C(NCC(F)Cl)c1cnsc1Br

>  <HIPPO Compound ID>  (1548) 
271123

>  <alias>  (1548) 
SFSXERDNWWWTRY-UHFFFAOYSA-N-P49

>  <subsites>  (1548) 


>  <placement_batch>  (1548) 
CpKRS_FrAncestor_bulkdock_iter2

>  <name>  (1548) 
SFSXERDNWWWTRY-UHFFFAOYSA-N-P49

$$$$
IXCRWIJJGIUKHE-UHFFFAOYSA-N-P48
     RDKit          3D

 13 13  0  0  0  0  0  0  0  0999 V2000
    5.0804  -13.1964   25.1194 O   0  0  0  0  0  0  0  0  0  0  0  0
    3.9333  -13.0615   24.9913 C   0  0  0  0  0  0  0  0  0  0  0  0
    3.1364  -12.2402   23.9673 N   0  0  0  0  0  0  0  0  0  0  0  0
    3.5816  -11.4837   22.8213 C   0  0  0  0  0  0  0  0  0  0  0  0
    4.6983  -10.4851   23.1360 C   0  0  2  0  0  0  0  0  0  0  0  0
    4.2012   -9.5158   23.9594 F   0  0  0  0  0  0  0  0  0  0  0  0
    5.2518   -9.6789   21.6511 Cl  0  0  0  0  0  0  0  0  0  0  0  0
    3.0143  -13.7077   25.9438 C   0  0  0  0  0  0  0  0  0  0  0  0
    1.7683  -13.2242   26.3239 C   0  0  0  0  0  0  0  0  0  0  0  0
    1.0739  -14.2618   27.4887 S   0  0  0  0  0  0  0  0  0  0  0  0
    2.3362  -15.3211   27.5389 N   0  0  0  0  0  0  0  0  0  0  0  0
    3.2807  -14.8989   26.7013 C   0  0  0  0  0  0  0  0  0  0  0  0
    4.6945  -15.8447   26.5843 Cl  0  0  0  0  0  0  0  0  0  0  0  0
  1  2  2  0
  2  3  1  0
  3  4  1  0
  4  5  1  0
  5  6  1  1
  5  7  1  0
  2  8  1  0
  8  9  2  0
  9 10  1  0
 10 11  1  0
 11 12  2  0
 12 13  1  0
 12  8  1  0
M  END
>  <inchikey>  (1549) 
IXCRWIJJGIUKHE-UHFFFAOYSA-N

>  <tags>  (1549) 
fragmenstein_placed,CpKRS_FrAncestor_bulkdock_iter2

>  <ref_pdb>  (1549) 
x0654b

>  <energy_score>  (1549) 
-7.782319

>  <distance_score>  (1549) 
0.365662

>  <HIPPO Pose ID>  (1549) 
60987

>  <ref_mols>  (1549) 
x0504a

>  <smiles>  (1549) 
O=C(NCC(F)Cl)c1csnc1Cl

>  <HIPPO Compound ID>  (1549) 
271118

>  <alias>  (1549) 
IXCRWIJJGIUKHE-UHFFFAOYSA-N-P48

>  <subsites>  (1549) 


>  <placement_batch>  (1549) 
CpKRS_FrAncestor_bulkdock_iter2

>  <name>  (1549) 
IXCRWIJJGIUKHE-UHFFFAOYSA-N-P48

$$$$
ZNHZXPLOGDTWTC-UHFFFAOYSA-N-P48
     RDKit          3D

 16 16  0  0  0  0  0  0  0  0999 V2000
    4.9288  -13.7442   24.7291 O   0  0  0  0  0  0  0  0  0  0  0  0
    3.8504  -13.3359   24.8739 C   0  0  0  0  0  0  0  0  0  0  0  0
    3.0974  -12.2336   24.1242 N   0  0  0  0  0  0  0  0  0  0  0  0
    3.4777  -11.4569   22.9673 C   0  0  0  0  0  0  0  0  0  0  0  0
    4.6678  -10.5291   23.2162 C   0  0  2  0  0  0  0  0  0  0  0  0
    4.2814   -9.5371   24.0705 F   0  0  0  0  0  0  0  0  0  0  0  0
    5.1948   -9.7514   21.7070 Cl  0  0  0  0  0  0  0  0  0  0  0  0
    2.9613  -13.8610   25.9113 C   0  0  0  0  0  0  0  0  0  0  0  0
    1.6641  -13.3996   26.1132 N   0  0  0  0  0  0  0  0  0  0  0  0
    1.2360  -14.1169   27.1276 C   0  0  0  0  0  0  0  0  0  0  0  0
    2.1255  -15.0274   27.6049 O   0  0  0  0  0  0  0  0  0  0  0  0
    3.2399  -14.8603   26.8160 C   0  0  0  0  0  0  0  0  0  0  0  0
    4.4096  -15.7171   27.0611 C   0  0  0  0  0  0  0  0  0  0  0  0
    4.3672  -16.2775   28.3007 F   0  0  0  0  0  0  0  0  0  0  0  0
    5.5931  -15.0573   26.9975 F   0  0  0  0  0  0  0  0  0  0  0  0
    4.4866  -16.7403   26.1721 F   0  0  0  0  0  0  0  0  0  0  0  0
  1  2  2  0
  2  3  1  0
  3  4  1  0
  4  5  1  0
  5  6  1  1
  5  7  1  0
  2  8  1  0
  8  9  1  0
  9 10  2  0
 10 11  1  0
 11 12  1  0
 12 13  1  0
 13 14  1  0
 13 15  1  0
 13 16  1  0
 12  8  2  0
M  END
>  <inchikey>  (1550) 
ZNHZXPLOGDTWTC-UHFFFAOYSA-N

>  <tags>  (1550) 
fragmenstein_placed,CpKRS_FrAncestor_bulkdock_iter2

>  <ref_pdb>  (1550) 
x0654b

>  <energy_score>  (1550) 
-15.713026

>  <distance_score>  (1550) 
0.370017

>  <HIPPO Pose ID>  (1550) 
60990

>  <ref_mols>  (1550) 
x0504a

>  <smiles>  (1550) 
O=C(NCC(F)Cl)c1ncoc1C(F)(F)F

>  <HIPPO Compound ID>  (1550) 
453133

>  <alias>  (1550) 
ZNHZXPLOGDTWTC-UHFFFAOYSA-N-P48

>  <subsites>  (1550) 


>  <placement_batch>  (1550) 
CpKRS_FrAncestor_bulkdock_iter2

>  <name>  (1550) 
ZNHZXPLOGDTWTC-UHFFFAOYSA-N-P48

$$$$
MFNOPKXSRWACTD-UHFFFAOYSA-N-P48
     RDKit          3D

 16 16  0  0  0  0  0  0  0  0999 V2000
    4.9155  -13.7960   24.6618 O   0  0  0  0  0  0  0  0  0  0  0  0
    3.8588  -13.3463   24.8439 C   0  0  0  0  0  0  0  0  0  0  0  0
    3.0832  -12.2801   24.0591 N   0  0  0  0  0  0  0  0  0  0  0  0
    3.4825  -11.4677   22.9321 C   0  0  0  0  0  0  0  0  0  0  0  0
    4.6703  -10.5472   23.2156 C   0  0  2  0  0  0  0  0  0  0  0  0
    4.2771   -9.5811   24.0955 F   0  0  0  0  0  0  0  0  0  0  0  0
    5.2027   -9.7266   21.7310 Cl  0  0  0  0  0  0  0  0  0  0  0  0
    3.0133  -13.8452   25.9143 C   0  0  0  0  0  0  0  0  0  0  0  0
    1.7516  -13.3253   26.1027 O   0  0  0  0  0  0  0  0  0  0  0  0
    1.2580  -14.0176   27.1646 C   0  0  0  0  0  0  0  0  0  0  0  0
    2.0651  -14.9251   27.6577 N   0  0  0  0  0  0  0  0  0  0  0  0
    3.2076  -14.8282   26.8656 C   0  0  0  0  0  0  0  0  0  0  0  0
    4.4046  -15.6895   27.0570 C   0  0  0  0  0  0  0  0  0  0  0  0
    4.4133  -16.2760   28.2851 F   0  0  0  0  0  0  0  0  0  0  0  0
    4.4668  -16.6924   26.1419 F   0  0  0  0  0  0  0  0  0  0  0  0
    5.5800  -15.0134   26.9694 F   0  0  0  0  0  0  0  0  0  0  0  0
  1  2  2  0
  2  3  1  0
  3  4  1  0
  4  5  1  0
  5  6  1  1
  5  7  1  0
  2  8  1  0
  8  9  1  0
  9 10  1  0
 10 11  2  0
 11 12  1  0
 12 13  1  0
 13 14  1  0
 13 15  1  0
 13 16  1  0
 12  8  2  0
M  END
>  <inchikey>  (1551) 
MFNOPKXSRWACTD-UHFFFAOYSA-N

>  <tags>  (1551) 
fragmenstein_placed,CpKRS_FrAncestor_bulkdock_iter2

>  <ref_pdb>  (1551) 
x0654b

>  <energy_score>  (1551) 
-5.329741

>  <distance_score>  (1551) 
0.383165

>  <HIPPO Pose ID>  (1551) 
60996

>  <ref_mols>  (1551) 
x0504a

>  <smiles>  (1551) 
O=C(NCC(F)Cl)c1ocnc1C(F)(F)F

>  <HIPPO Compound ID>  (1551) 
453134

>  <alias>  (1551) 
MFNOPKXSRWACTD-UHFFFAOYSA-N-P48

>  <subsites>  (1551) 


>  <placement_batch>  (1551) 
CpKRS_FrAncestor_bulkdock_iter2

>  <name>  (1551) 
MFNOPKXSRWACTD-UHFFFAOYSA-N-P48

$$$$
UEVQGQMOGYAVNC-UHFFFAOYSA-N-P49
     RDKit          3D

 13 13  0  0  0  0  0  0  0  0999 V2000
    4.9390  -13.5089   24.6207 O   0  0  0  0  0  0  0  0  0  0  0  0
    3.8813  -13.0447   24.7425 C   0  0  0  0  0  0  0  0  0  0  0  0
    3.1829  -11.9453   23.9420 N   0  0  0  0  0  0  0  0  0  0  0  0
    3.6757  -11.1072   22.8507 C   0  0  0  0  0  0  0  0  0  0  0  0
    4.8360  -10.1974   23.2804 C   0  0  1  0  0  0  0  0  0  0  0  0
    5.1608   -9.3647   22.2543 F   0  0  0  0  0  0  0  0  0  0  0  0
    4.4052   -9.1776   24.6748 Cl  0  0  0  0  0  0  0  0  0  0  0  0
    2.9742  -13.6155   25.7468 C   0  0  0  0  0  0  0  0  0  0  0  0
    1.4084  -13.0043   26.0930 S   0  0  0  0  0  0  0  0  0  0  0  0
    0.9768  -14.1600   27.2081 N   0  0  0  0  0  0  0  0  0  0  0  0
    2.0159  -14.9811   27.3638 C   0  0  0  0  0  0  0  0  0  0  0  0
    3.1521  -14.7192   26.5595 C   0  0  0  0  0  0  0  0  0  0  0  0
    4.6626  -15.8464   26.6345 Br  0  0  0  0  0  0  0  0  0  0  0  0
  1  2  2  0
  2  3  1  0
  3  4  1  0
  4  5  1  0
  5  6  1  6
  5  7  1  0
  2  8  1  0
  8  9  1  0
  9 10  1  0
 10 11  2  0
 11 12  1  0
 12 13  1  0
 12  8  2  0
M  END
>  <inchikey>  (1552) 
UEVQGQMOGYAVNC-UHFFFAOYSA-N

>  <tags>  (1552) 
fragmenstein_placed,CpKRS_FrAncestor_bulkdock_iter2

>  <ref_pdb>  (1552) 
x0654b

>  <energy_score>  (1552) 
-0.667805

>  <distance_score>  (1552) 
0.442178

>  <HIPPO Pose ID>  (1552) 
61000

>  <ref_mols>  (1552) 
x0504b

>  <smiles>  (1552) 
O=C(NCC(F)Cl)c1sncc1Br

>  <HIPPO Compound ID>  (1552) 
271119

>  <alias>  (1552) 
UEVQGQMOGYAVNC-UHFFFAOYSA-N-P49

>  <subsites>  (1552) 


>  <placement_batch>  (1552) 
CpKRS_FrAncestor_bulkdock_iter2

>  <name>  (1552) 
UEVQGQMOGYAVNC-UHFFFAOYSA-N-P49

$$$$
DRUPSBYRASGPBE-UHFFFAOYSA-N-P48
     RDKit          3D

 16 16  0  0  0  0  0  0  0  0999 V2000
    5.3029  -14.0194   24.9750 O   0  0  0  0  0  0  0  0  0  0  0  0
    4.2363  -13.5739   24.8441 C   0  0  0  0  0  0  0  0  0  0  0  0
    3.6833  -12.6093   23.7830 N   0  0  0  0  0  0  0  0  0  0  0  0
    4.3538  -11.9101   22.7068 C   0  0  0  0  0  0  0  0  0  0  0  0
    4.3174  -10.3913   22.8720 C   0  0  1  0  0  0  0  0  0  0  0  0
    4.8543  -10.0172   24.0626 F   0  0  0  0  0  0  0  0  0  0  0  0
    5.2028   -9.5686   21.5770 Cl  0  0  0  0  0  0  0  0  0  0  0  0
    3.1912  -13.9571   25.7995 C   0  0  0  0  0  0  0  0  0  0  0  0
    1.6609  -13.1959   25.8835 S   0  0  0  0  0  0  0  0  0  0  0  0
    1.0660  -14.0993   27.1283 N   0  0  0  0  0  0  0  0  0  0  0  0
    2.0133  -14.9404   27.5214 C   0  0  0  0  0  0  0  0  0  0  0  0
    3.2435  -14.9269   26.7948 C   0  0  0  0  0  0  0  0  0  0  0  0
    4.3637  -15.8434   27.0897 C   0  0  0  0  0  0  0  0  0  0  0  0
    4.1134  -16.5546   28.2242 F   0  0  0  0  0  0  0  0  0  0  0  0
    4.5533  -16.7520   26.0996 F   0  0  0  0  0  0  0  0  0  0  0  0
    5.5504  -15.2276   27.3012 F   0  0  0  0  0  0  0  0  0  0  0  0
  1  2  2  0
  2  3  1  0
  3  4  1  0
  4  5  1  0
  5  6  1  1
  5  7  1  0
  2  8  1  0
  8  9  1  0
  9 10  1  0
 10 11  2  0
 11 12  1  0
 12 13  1  0
 13 14  1  0
 13 15  1  0
 13 16  1  0
 12  8  2  0
M  END
>  <inchikey>  (1553) 
DRUPSBYRASGPBE-UHFFFAOYSA-N

>  <tags>  (1553) 
fragmenstein_placed,CpKRS_FrAncestor_bulkdock_iter2

>  <ref_pdb>  (1553) 
x0654b

>  <energy_score>  (1553) 
-8.145216

>  <distance_score>  (1553) 
0.399669

>  <HIPPO Pose ID>  (1553) 
61002

>  <ref_mols>  (1553) 
x0504a

>  <smiles>  (1553) 
O=C(NCC(F)Cl)c1sncc1C(F)(F)F

>  <HIPPO Compound ID>  (1553) 
453135

>  <alias>  (1553) 
DRUPSBYRASGPBE-UHFFFAOYSA-N-P48

>  <subsites>  (1553) 


>  <placement_batch>  (1553) 
CpKRS_FrAncestor_bulkdock_iter2

>  <name>  (1553) 
DRUPSBYRASGPBE-UHFFFAOYSA-N-P48

$$$$
SKSLTKFOPQYGOE-UHFFFAOYSA-N-P49
     RDKit          3D

 14 14  0  0  0  0  0  0  0  0999 V2000
    4.8992  -13.5078   24.3933 O   0  0  0  0  0  0  0  0  0  0  0  0
    3.8615  -13.0454   24.6431 C   0  0  0  0  0  0  0  0  0  0  0  0
    3.1432  -11.8252   24.0411 N   0  0  0  0  0  0  0  0  0  0  0  0
    3.5931  -10.8573   23.0670 C   0  0  0  0  0  0  0  0  0  0  0  0
    4.8383  -10.0679   23.4807 C   0  0  1  0  0  0  0  0  0  0  0  0
    5.1819   -9.2272   22.4676 F   0  0  0  0  0  0  0  0  0  0  0  0
    4.5269   -9.0690   24.9169 Cl  0  0  0  0  0  0  0  0  0  0  0  0
    3.0390  -13.6732   25.6880 C   0  0  0  0  0  0  0  0  0  0  0  0
    1.4514  -13.1526   26.0731 S   0  0  0  0  0  0  0  0  0  0  0  0
    1.1949  -14.1938   27.3292 N   0  0  0  0  0  0  0  0  0  0  0  0
    2.2906  -14.9330   27.4756 C   0  0  0  0  0  0  0  0  0  0  0  0
    2.3319  -16.0375   28.7777 Cl  0  0  0  0  0  0  0  0  0  0  0  0
    3.3489  -14.7255   26.5386 C   0  0  0  0  0  0  0  0  0  0  0  0
    4.7924  -15.6485   26.5409 Cl  0  0  0  0  0  0  0  0  0  0  0  0
  1  2  2  0
  2  3  1  0
  3  4  1  0
  4  5  1  0
  5  6  1  6
  5  7  1  0
  2  8  1  0
  8  9  1  0
  9 10  1  0
 10 11  2  0
 11 12  1  0
 11 13  1  0
 13 14  1  0
 13  8  2  0
M  END
>  <inchikey>  (1554) 
SKSLTKFOPQYGOE-UHFFFAOYSA-N

>  <tags>  (1554) 
fragmenstein_placed,CpKRS_FrAncestor_bulkdock_iter2

>  <ref_pdb>  (1554) 
x0654b

>  <energy_score>  (1554) 
-7.912459

>  <distance_score>  (1554) 
0.387786

>  <HIPPO Pose ID>  (1554) 
61006

>  <ref_mols>  (1554) 
x0504b

>  <smiles>  (1554) 
O=C(NCC(F)Cl)c1snc(Cl)c1Cl

>  <HIPPO Compound ID>  (1554) 
279594

>  <alias>  (1554) 
SKSLTKFOPQYGOE-UHFFFAOYSA-N-P49

>  <subsites>  (1554) 


>  <placement_batch>  (1554) 
CpKRS_FrAncestor_bulkdock_iter2

>  <name>  (1554) 
SKSLTKFOPQYGOE-UHFFFAOYSA-N-P49

$$$$
YHXIJPHSNMDKOZ-UHFFFAOYSA-N-P49
     RDKit          3D

 14 14  0  0  0  0  0  0  0  0999 V2000
    5.2073  -13.5358   25.0593 O   0  0  0  0  0  0  0  0  0  0  0  0
    4.1163  -13.1706   24.8984 C   0  0  0  0  0  0  0  0  0  0  0  0
    3.5552  -12.1027   23.9510 N   0  0  0  0  0  0  0  0  0  0  0  0
    4.2331  -11.1857   23.0631 C   0  0  0  0  0  0  0  0  0  0  0  0
    4.3707   -9.7912   23.6677 C   0  0  0  0  0  0  0  0  0  0  0  0
    4.9388   -8.9465   22.7705 F   0  0  0  0  0  0  0  0  0  0  0  0
    5.1763   -9.8039   24.7561 F   0  0  0  0  0  0  0  0  0  0  0  0
    3.0547  -13.7494   25.7500 C   0  0  0  0  0  0  0  0  0  0  0  0
    3.1827  -14.9750   26.5087 C   0  0  0  0  0  0  0  0  0  0  0  0
    4.5261  -16.0307   26.4708 Cl  0  0  0  0  0  0  0  0  0  0  0  0
    2.1627  -15.3430   27.2851 N   0  0  0  0  0  0  0  0  0  0  0  0
    0.9821  -14.2032   27.1574 S   0  0  0  0  0  0  0  0  0  0  0  0
    1.8116  -13.2212   26.0523 C   0  0  0  0  0  0  0  0  0  0  0  0
    1.0326  -11.7805   25.5327 Cl  0  0  0  0  0  0  0  0  0  0  0  0
  1  2  2  0
  2  3  1  0
  3  4  1  0
  4  5  1  0
  5  6  1  0
  5  7  1  0
  2  8  1  0
  8  9  1  0
  9 10  1  0
  9 11  2  0
 11 12  1  0
 12 13  1  0
 13 14  1  0
 13  8  2  0
M  END
>  <inchikey>  (1555) 
YHXIJPHSNMDKOZ-UHFFFAOYSA-N

>  <tags>  (1555) 
fragmenstein_placed,CpKRS_FrAncestor_bulkdock_iter2

>  <ref_pdb>  (1555) 
x0654b

>  <energy_score>  (1555) 
-6.253898

>  <distance_score>  (1555) 
0.344497

>  <HIPPO Pose ID>  (1555) 
61009

>  <ref_mols>  (1555) 
x0504b

>  <smiles>  (1555) 
O=C(NCC(F)F)c1c(Cl)nsc1Cl

>  <HIPPO Compound ID>  (1555) 
281913

>  <alias>  (1555) 
YHXIJPHSNMDKOZ-UHFFFAOYSA-N-P49

>  <subsites>  (1555) 


>  <placement_batch>  (1555) 
CpKRS_FrAncestor_bulkdock_iter2

>  <name>  (1555) 
YHXIJPHSNMDKOZ-UHFFFAOYSA-N-P49

$$$$
OJWQABVMONJXEU-UHFFFAOYSA-N-P48
     RDKit          3D

 12 12  0  0  0  0  0  0  0  0999 V2000
    5.1769  -13.3808   24.8436 O   0  0  0  0  0  0  0  0  0  0  0  0
    4.0355  -13.1612   24.9096 C   0  0  0  0  0  0  0  0  0  0  0  0
    3.1514  -12.2253   24.0700 N   0  0  0  0  0  0  0  0  0  0  0  0
    3.4664  -11.4313   22.9081 C   0  0  0  0  0  0  0  0  0  0  0  0
    4.6518  -10.4872   23.0727 C   0  0  0  0  0  0  0  0  0  0  0  0
    4.3033   -9.4618   23.8991 F   0  0  0  0  0  0  0  0  0  0  0  0
    4.9322   -9.9092   21.8734 F   0  0  0  0  0  0  0  0  0  0  0  0
    3.2271  -13.8717   25.9040 C   0  0  0  0  0  0  0  0  0  0  0  0
    3.6058  -14.9259   26.7185 C   0  0  0  0  0  0  0  0  0  0  0  0
    2.5205  -15.3431   27.5374 C   0  0  0  0  0  0  0  0  0  0  0  0
    1.3752  -14.6842   27.3947 N   0  0  0  0  0  0  0  0  0  0  0  0
    1.5951  -13.4988   26.2620 S   0  0  0  0  0  0  0  0  0  0  0  0
  1  2  2  0
  2  3  1  0
  3  4  1  0
  4  5  1  0
  5  6  1  0
  5  7  1  0
  2  8  1  0
  8  9  2  0
  9 10  1  0
 10 11  2  0
 11 12  1  0
 12  8  1  0
M  END
>  <inchikey>  (1556) 
OJWQABVMONJXEU-UHFFFAOYSA-N

>  <tags>  (1556) 
fragmenstein_placed,CpKRS_FrAncestor_bulkdock_iter2

>  <ref_pdb>  (1556) 
x0654b

>  <energy_score>  (1556) 
-10.408923

>  <distance_score>  (1556) 
0.391988

>  <HIPPO Pose ID>  (1556) 
61014

>  <ref_mols>  (1556) 
x0504a

>  <smiles>  (1556) 
O=C(NCC(F)F)c1ccns1

>  <HIPPO Compound ID>  (1556) 
270084

>  <alias>  (1556) 
OJWQABVMONJXEU-UHFFFAOYSA-N-P48

>  <subsites>  (1556) 


>  <placement_batch>  (1556) 
CpKRS_FrAncestor_bulkdock_iter2

>  <name>  (1556) 
OJWQABVMONJXEU-UHFFFAOYSA-N-P48

$$$$
JCOFXUAUHOVIIE-UHFFFAOYSA-N-P48
     RDKit          3D

 12 12  0  0  0  0  0  0  0  0999 V2000
    5.0561  -13.5022   24.8585 O   0  0  0  0  0  0  0  0  0  0  0  0
    3.9355  -13.2164   24.9895 C   0  0  0  0  0  0  0  0  0  0  0  0
    3.0567  -12.2419   24.1906 N   0  0  0  0  0  0  0  0  0  0  0  0
    3.3451  -11.4806   22.9981 C   0  0  0  0  0  0  0  0  0  0  0  0
    4.5766  -10.5834   23.0874 C   0  0  0  0  0  0  0  0  0  0  0  0
    4.3103   -9.5268   23.9057 F   0  0  0  0  0  0  0  0  0  0  0  0
    4.8273  -10.0414   21.8647 F   0  0  0  0  0  0  0  0  0  0  0  0
    3.1152  -13.8469   26.0100 C   0  0  0  0  0  0  0  0  0  0  0  0
    3.3797  -14.8410   26.9259 C   0  0  0  0  0  0  0  0  0  0  0  0
    2.2691  -15.0881   27.6962 N   0  0  0  0  0  0  0  0  0  0  0  0
    1.3782  -14.2459   27.2272 C   0  0  0  0  0  0  0  0  0  0  0  0
    1.8024  -13.4663   26.1933 O   0  0  0  0  0  0  0  0  0  0  0  0
  1  2  2  0
  2  3  1  0
  3  4  1  0
  4  5  1  0
  5  6  1  0
  5  7  1  0
  2  8  1  0
  8  9  2  0
  9 10  1  0
 10 11  2  0
 11 12  1  0
 12  8  1  0
M  END
>  <inchikey>  (1557) 
JCOFXUAUHOVIIE-UHFFFAOYSA-N

>  <tags>  (1557) 
fragmenstein_placed,CpKRS_FrAncestor_bulkdock_iter2

>  <ref_pdb>  (1557) 
x0654b

>  <energy_score>  (1557) 
-7.707408

>  <distance_score>  (1557) 
0.388284

>  <HIPPO Pose ID>  (1557) 
61017

>  <ref_mols>  (1557) 
x0504a

>  <smiles>  (1557) 
O=C(NCC(F)F)c1cnco1

>  <HIPPO Compound ID>  (1557) 
268842

>  <alias>  (1557) 
JCOFXUAUHOVIIE-UHFFFAOYSA-N-P48

>  <subsites>  (1557) 


>  <placement_batch>  (1557) 
CpKRS_FrAncestor_bulkdock_iter2

>  <name>  (1557) 
JCOFXUAUHOVIIE-UHFFFAOYSA-N-P48

$$$$
AUCNMFVALJVVDU-UHFFFAOYSA-N-P47
     RDKit          3D

 13 13  0  0  0  0  0  0  0  0999 V2000
    3.9262    4.7068   42.6869 O   0  0  0  0  0  0  0  0  0  0  0  0
    3.1280    5.2013   43.3716 C   0  0  0  0  0  0  0  0  0  0  0  0
    2.2398    6.4230   43.1358 N   0  0  0  0  0  0  0  0  0  0  0  0
    2.2075    7.3619   42.0400 C   0  0  0  0  0  0  0  0  0  0  0  0
    3.5906    7.6399   41.4662 C   0  0  0  0  0  0  0  0  0  0  0  0
    3.5298    8.6974   40.6193 F   0  0  0  0  0  0  0  0  0  0  0  0
    4.4391    7.9918   42.4721 F   0  0  0  0  0  0  0  0  0  0  0  0
    2.9401    4.6221   44.7116 C   0  0  0  0  0  0  0  0  0  0  0  0
    3.5243    3.3478   45.0624 C   0  0  0  0  0  0  0  0  0  0  0  0
    3.3331    2.8808   46.2919 N   0  0  0  0  0  0  0  0  0  0  0  0
    2.4001    3.9765   47.1040 S   0  0  0  0  0  0  0  0  0  0  0  0
    2.3057    5.1099   45.8390 C   0  0  0  0  0  0  0  0  0  0  0  0
    1.4485    6.7950   46.1106 Br  0  0  0  0  0  0  0  0  0  0  0  0
  1  2  2  0
  2  3  1  0
  3  4  1  0
  4  5  1  0
  5  6  1  0
  5  7  1  0
  2  8  1  0
  8  9  1  0
  9 10  2  0
 10 11  1  0
 11 12  1  0
 12 13  1  0
 12  8  2  0
M  END
>  <inchikey>  (1558) 
AUCNMFVALJVVDU-UHFFFAOYSA-N

>  <tags>  (1558) 
fragmenstein_placed,CpKRS_FrAncestor_bulkdock_iter2

>  <ref_pdb>  (1558) 
x0654b

>  <energy_score>  (1558) 
-4.568673

>  <distance_score>  (1558) 
0.421663

>  <HIPPO Pose ID>  (1558) 
61022

>  <ref_mols>  (1558) 
x0504c

>  <smiles>  (1558) 
O=C(NCC(F)F)c1cnsc1Br

>  <HIPPO Compound ID>  (1558) 
272684

>  <alias>  (1558) 
AUCNMFVALJVVDU-UHFFFAOYSA-N-P47

>  <subsites>  (1558) 


>  <placement_batch>  (1558) 
CpKRS_FrAncestor_bulkdock_iter2

>  <name>  (1558) 
AUCNMFVALJVVDU-UHFFFAOYSA-N-P47

$$$$
LJGXFXYKOHNVCP-UHFFFAOYSA-N-P48
     RDKit          3D

 12 12  0  0  0  0  0  0  0  0999 V2000
    5.0656  -13.5352   24.8205 O   0  0  0  0  0  0  0  0  0  0  0  0
    3.9413  -13.2566   24.9286 C   0  0  0  0  0  0  0  0  0  0  0  0
    3.0531  -12.3544   24.0633 N   0  0  0  0  0  0  0  0  0  0  0  0
    3.3818  -11.5244   22.9306 C   0  0  0  0  0  0  0  0  0  0  0  0
    4.5868  -10.6061   23.1102 C   0  0  0  0  0  0  0  0  0  0  0  0
    4.2649   -9.5843   23.9516 F   0  0  0  0  0  0  0  0  0  0  0  0
    4.8799  -10.0154   21.9189 F   0  0  0  0  0  0  0  0  0  0  0  0
    3.0890  -13.8605   25.9569 C   0  0  0  0  0  0  0  0  0  0  0  0
    3.4564  -14.8061   26.8859 C   0  0  0  0  0  0  0  0  0  0  0  0
    2.3712  -15.0863   27.6610 O   0  0  0  0  0  0  0  0  0  0  0  0
    1.3879  -14.2956   27.1501 C   0  0  0  0  0  0  0  0  0  0  0  0
    1.7398  -13.5575   26.1197 N   0  0  0  0  0  0  0  0  0  0  0  0
  1  2  2  0
  2  3  1  0
  3  4  1  0
  4  5  1  0
  5  6  1  0
  5  7  1  0
  2  8  1  0
  8  9  2  0
  9 10  1  0
 10 11  1  0
 11 12  2  0
 12  8  1  0
M  END
>  <inchikey>  (1559) 
LJGXFXYKOHNVCP-UHFFFAOYSA-N

>  <tags>  (1559) 
fragmenstein_placed,CpKRS_FrAncestor_bulkdock_iter2

>  <ref_pdb>  (1559) 
x0654b

>  <energy_score>  (1559) 
-19.407688

>  <distance_score>  (1559) 
0.409634

>  <HIPPO Pose ID>  (1559) 
61023

>  <ref_mols>  (1559) 
x0504a

>  <smiles>  (1559) 
O=C(NCC(F)F)c1cocn1

>  <HIPPO Compound ID>  (1559) 
268450

>  <alias>  (1559) 
LJGXFXYKOHNVCP-UHFFFAOYSA-N-P48

>  <subsites>  (1559) 


>  <placement_batch>  (1559) 
CpKRS_FrAncestor_bulkdock_iter2

>  <name>  (1559) 
LJGXFXYKOHNVCP-UHFFFAOYSA-N-P48

$$$$
PEIREGHYRSLRKB-UHFFFAOYSA-N-P49
     RDKit          3D

 13 13  0  0  0  0  0  0  0  0999 V2000
    5.0023  -13.2888   24.8994 O   0  0  0  0  0  0  0  0  0  0  0  0
    3.8899  -12.9617   24.8175 C   0  0  0  0  0  0  0  0  0  0  0  0
    3.2274  -11.8992   23.9255 N   0  0  0  0  0  0  0  0  0  0  0  0
    3.8108  -10.9461   23.0110 C   0  0  0  0  0  0  0  0  0  0  0  0
    4.8996  -10.0841   23.6473 C   0  0  0  0  0  0  0  0  0  0  0  0
    4.4013   -9.4458   24.7404 F   0  0  0  0  0  0  0  0  0  0  0  0
    5.2606   -9.1048   22.7765 F   0  0  0  0  0  0  0  0  0  0  0  0
    2.8953  -13.5776   25.7282 C   0  0  0  0  0  0  0  0  0  0  0  0
    1.6999  -12.9958   26.1392 C   0  0  0  0  0  0  0  0  0  0  0  0
    0.8836  -14.0295   27.2264 S   0  0  0  0  0  0  0  0  0  0  0  0
    2.0308  -15.2082   27.2296 N   0  0  0  0  0  0  0  0  0  0  0  0
    3.0261  -14.8314   26.4288 C   0  0  0  0  0  0  0  0  0  0  0  0
    4.5153  -15.9916   26.2498 Br  0  0  0  0  0  0  0  0  0  0  0  0
  1  2  2  0
  2  3  1  0
  3  4  1  0
  4  5  1  0
  5  6  1  0
  5  7  1  0
  2  8  1  0
  8  9  2  0
  9 10  1  0
 10 11  1  0
 11 12  2  0
 12 13  1  0
 12  8  1  0
M  END
>  <inchikey>  (1560) 
PEIREGHYRSLRKB-UHFFFAOYSA-N

>  <tags>  (1560) 
fragmenstein_placed,CpKRS_FrAncestor_bulkdock_iter2

>  <ref_pdb>  (1560) 
x0654b

>  <energy_score>  (1560) 
-12.885929

>  <distance_score>  (1560) 
0.355863

>  <HIPPO Pose ID>  (1560) 
61027

>  <ref_mols>  (1560) 
x0504b

>  <smiles>  (1560) 
O=C(NCC(F)F)c1csnc1Br

>  <HIPPO Compound ID>  (1560) 
272682

>  <alias>  (1560) 
PEIREGHYRSLRKB-UHFFFAOYSA-N-P49

>  <subsites>  (1560) 


>  <placement_batch>  (1560) 
CpKRS_FrAncestor_bulkdock_iter2

>  <name>  (1560) 
PEIREGHYRSLRKB-UHFFFAOYSA-N-P49

$$$$
JFTZPFYBVWTUJJ-UHFFFAOYSA-N-P48
     RDKit          3D

 16 16  0  0  0  0  0  0  0  0999 V2000
    5.3179  -13.3138   25.1830 O   0  0  0  0  0  0  0  0  0  0  0  0
    4.2067  -13.1637   24.8805 C   0  0  0  0  0  0  0  0  0  0  0  0
    3.5959  -12.4955   23.6457 N   0  0  0  0  0  0  0  0  0  0  0  0
    4.2226  -11.7819   22.5591 C   0  0  0  0  0  0  0  0  0  0  0  0
    4.8664  -10.4611   22.9652 C   0  0  0  0  0  0  0  0  0  0  0  0
    3.9390   -9.6360   23.5265 F   0  0  0  0  0  0  0  0  0  0  0  0
    5.3078   -9.8153   21.8547 F   0  0  0  0  0  0  0  0  0  0  0  0
    3.1509  -13.6853   25.7579 C   0  0  0  0  0  0  0  0  0  0  0  0
    1.9369  -13.0769   26.0337 C   0  0  0  0  0  0  0  0  0  0  0  0
    1.0685  -14.0234   27.1579 S   0  0  0  0  0  0  0  0  0  0  0  0
    2.2156  -15.1941   27.3130 N   0  0  0  0  0  0  0  0  0  0  0  0
    3.2592  -14.9118   26.5200 C   0  0  0  0  0  0  0  0  0  0  0  0
    4.4163  -15.8662   26.4393 C   0  0  0  0  0  0  0  0  0  0  0  0
    4.9221  -15.9649   25.1773 F   0  0  0  0  0  0  0  0  0  0  0  0
    5.4488  -15.5218   27.2535 F   0  0  0  0  0  0  0  0  0  0  0  0
    4.0598  -17.1300   26.7790 F   0  0  0  0  0  0  0  0  0  0  0  0
  1  2  2  0
  2  3  1  0
  3  4  1  0
  4  5  1  0
  5  6  1  0
  5  7  1  0
  2  8  1  0
  8  9  2  0
  9 10  1  0
 10 11  1  0
 11 12  2  0
 12 13  1  0
 13 14  1  0
 13 15  1  0
 13 16  1  0
 12  8  1  0
M  END
>  <inchikey>  (1561) 
JFTZPFYBVWTUJJ-UHFFFAOYSA-N

>  <tags>  (1561) 
fragmenstein_placed,CpKRS_FrAncestor_bulkdock_iter2

>  <ref_pdb>  (1561) 
x0654b

>  <energy_score>  (1561) 
-13.098309

>  <distance_score>  (1561) 
0.431006

>  <HIPPO Pose ID>  (1561) 
61029

>  <ref_mols>  (1561) 
x0504a

>  <smiles>  (1561) 
O=C(NCC(F)F)c1csnc1C(F)(F)F

>  <HIPPO Compound ID>  (1561) 
453137

>  <alias>  (1561) 
JFTZPFYBVWTUJJ-UHFFFAOYSA-N-P48

>  <subsites>  (1561) 


>  <placement_batch>  (1561) 
CpKRS_FrAncestor_bulkdock_iter2

>  <name>  (1561) 
JFTZPFYBVWTUJJ-UHFFFAOYSA-N-P48

$$$$
HTYBRVDBUAGOGW-UHFFFAOYSA-N-P48
     RDKit          3D

 13 13  0  0  0  0  0  0  0  0999 V2000
    5.3424  -13.2740   25.2898 O   0  0  0  0  0  0  0  0  0  0  0  0
    4.2394  -13.2045   24.9321 C   0  0  0  0  0  0  0  0  0  0  0  0
    3.6383  -12.5427   23.6843 N   0  0  0  0  0  0  0  0  0  0  0  0
    4.2813  -11.9046   22.5581 C   0  0  0  0  0  0  0  0  0  0  0  0
    4.2804  -10.3837   22.6581 C   0  0  0  0  0  0  0  0  0  0  0  0
    4.8896   -9.8368   21.5780 F   0  0  0  0  0  0  0  0  0  0  0  0
    4.9517   -9.9438   23.7493 F   0  0  0  0  0  0  0  0  0  0  0  0
    3.1723  -13.7347   25.7934 C   0  0  0  0  0  0  0  0  0  0  0  0
    1.9299  -13.1518   26.0055 C   0  0  0  0  0  0  0  0  0  0  0  0
    1.0454  -14.0795   27.1380 S   0  0  0  0  0  0  0  0  0  0  0  0
    2.2193  -15.2135   27.3763 N   0  0  0  0  0  0  0  0  0  0  0  0
    3.2755  -14.8928   26.6327 C   0  0  0  0  0  0  0  0  0  0  0  0
    4.6307  -15.9217   26.7072 Cl  0  0  0  0  0  0  0  0  0  0  0  0
  1  2  2  0
  2  3  1  0
  3  4  1  0
  4  5  1  0
  5  6  1  0
  5  7  1  0
  2  8  1  0
  8  9  2  0
  9 10  1  0
 10 11  1  0
 11 12  2  0
 12 13  1  0
 12  8  1  0
M  END
>  <inchikey>  (1562) 
HTYBRVDBUAGOGW-UHFFFAOYSA-N

>  <tags>  (1562) 
fragmenstein_placed,CpKRS_FrAncestor_bulkdock_iter2

>  <ref_pdb>  (1562) 
x0654b

>  <energy_score>  (1562) 
-12.744477

>  <distance_score>  (1562) 
0.390538

>  <HIPPO Pose ID>  (1562) 
61032

>  <ref_mols>  (1562) 
x0504a

>  <smiles>  (1562) 
O=C(NCC(F)F)c1csnc1Cl

>  <HIPPO Compound ID>  (1562) 
272680

>  <alias>  (1562) 
HTYBRVDBUAGOGW-UHFFFAOYSA-N-P48

>  <subsites>  (1562) 


>  <placement_batch>  (1562) 
CpKRS_FrAncestor_bulkdock_iter2

>  <name>  (1562) 
HTYBRVDBUAGOGW-UHFFFAOYSA-N-P48

$$$$
UCJRHZDIXUFBJO-UHFFFAOYSA-N-P47
     RDKit          3D

 16 16  0  0  0  0  0  0  0  0999 V2000
    3.4646    4.6338   42.5264 O   0  0  0  0  0  0  0  0  0  0  0  0
    2.9935    5.1334   43.4628 C   0  0  0  0  0  0  0  0  0  0  0  0
    2.3326    6.4998   43.6291 N   0  0  0  0  0  0  0  0  0  0  0  0
    2.1907    7.5956   42.6951 C   0  0  0  0  0  0  0  0  0  0  0  0
    3.3913    7.7396   41.7665 C   0  0  0  0  0  0  0  0  0  0  0  0
    4.5108    7.9429   42.5133 F   0  0  0  0  0  0  0  0  0  0  0  0
    3.2482    8.8338   40.9777 F   0  0  0  0  0  0  0  0  0  0  0  0
    2.9971    4.4359   44.7461 C   0  0  0  0  0  0  0  0  0  0  0  0
    2.3991    4.8978   45.9057 N   0  0  0  0  0  0  0  0  0  0  0  0
    2.6635    3.9566   46.7856 C   0  0  0  0  0  0  0  0  0  0  0  0
    3.4005    2.9118   46.3101 O   0  0  0  0  0  0  0  0  0  0  0  0
    3.6112    3.2277   44.9897 C   0  0  0  0  0  0  0  0  0  0  0  0
    4.3702    2.3073   44.1204 C   0  0  0  0  0  0  0  0  0  0  0  0
    4.8125    1.2108   44.7954 F   0  0  0  0  0  0  0  0  0  0  0  0
    5.4757    2.8905   43.5940 F   0  0  0  0  0  0  0  0  0  0  0  0
    3.6208    1.8423   43.0927 F   0  0  0  0  0  0  0  0  0  0  0  0
  1  2  2  0
  2  3  1  0
  3  4  1  0
  4  5  1  0
  5  6  1  0
  5  7  1  0
  2  8  1  0
  8  9  1  0
  9 10  2  0
 10 11  1  0
 11 12  1  0
 12 13  1  0
 13 14  1  0
 13 15  1  0
 13 16  1  0
 12  8  2  0
M  END
>  <inchikey>  (1563) 
UCJRHZDIXUFBJO-UHFFFAOYSA-N

>  <tags>  (1563) 
fragmenstein_placed,CpKRS_FrAncestor_bulkdock_iter2

>  <ref_pdb>  (1563) 
x0654b

>  <energy_score>  (1563) 
-23.133042

>  <distance_score>  (1563) 
0.339479

>  <HIPPO Pose ID>  (1563) 
61037

>  <ref_mols>  (1563) 
x0504c

>  <smiles>  (1563) 
O=C(NCC(F)F)c1ncoc1C(F)(F)F

>  <HIPPO Compound ID>  (1563) 
453138

>  <alias>  (1563) 
UCJRHZDIXUFBJO-UHFFFAOYSA-N-P47

>  <subsites>  (1563) 


>  <placement_batch>  (1563) 
CpKRS_FrAncestor_bulkdock_iter2

>  <name>  (1563) 
UCJRHZDIXUFBJO-UHFFFAOYSA-N-P47

$$$$
JSMOQJYMTVLASW-UHFFFAOYSA-N-P49
     RDKit          3D

 13 13  0  0  0  0  0  0  0  0999 V2000
    4.7189  -13.3579   24.4232 O   0  0  0  0  0  0  0  0  0  0  0  0
    3.6893  -12.9349   24.7618 C   0  0  0  0  0  0  0  0  0  0  0  0
    2.9475  -11.6602   24.3333 N   0  0  0  0  0  0  0  0  0  0  0  0
    3.3582  -10.5843   23.4659 C   0  0  0  0  0  0  0  0  0  0  0  0
    4.7361  -10.0112   23.7826 C   0  0  0  0  0  0  0  0  0  0  0  0
    4.7225   -9.4320   25.0118 F   0  0  0  0  0  0  0  0  0  0  0  0
    5.0121   -9.0111   22.9016 F   0  0  0  0  0  0  0  0  0  0  0  0
    2.8478  -13.6616   25.7583 C   0  0  0  0  0  0  0  0  0  0  0  0
    1.6257  -13.1756   26.0563 N   0  0  0  0  0  0  0  0  0  0  0  0
    0.9032  -14.1375   27.1892 S   0  0  0  0  0  0  0  0  0  0  0  0
    2.1706  -15.2652   27.3128 C   0  0  0  0  0  0  0  0  0  0  0  0
    3.1803  -14.8633   26.4705 C   0  0  0  0  0  0  0  0  0  0  0  0
    4.7958  -15.8181   26.3093 Br  0  0  0  0  0  0  0  0  0  0  0  0
  1  2  2  0
  2  3  1  0
  3  4  1  0
  4  5  1  0
  5  6  1  0
  5  7  1  0
  2  8  1  0
  8  9  2  0
  9 10  1  0
 10 11  1  0
 11 12  2  0
 12 13  1  0
 12  8  1  0
M  END
>  <inchikey>  (1564) 
JSMOQJYMTVLASW-UHFFFAOYSA-N

>  <tags>  (1564) 
fragmenstein_placed,CpKRS_FrAncestor_bulkdock_iter2

>  <ref_pdb>  (1564) 
x0654b

>  <energy_score>  (1564) 
-14.992572

>  <distance_score>  (1564) 
0.438211

>  <HIPPO Pose ID>  (1564) 
61039

>  <ref_mols>  (1564) 
x0504b

>  <smiles>  (1564) 
O=C(NCC(F)F)c1nscc1Br

>  <HIPPO Compound ID>  (1564) 
272678

>  <alias>  (1564) 
JSMOQJYMTVLASW-UHFFFAOYSA-N-P49

>  <subsites>  (1564) 


>  <placement_batch>  (1564) 
CpKRS_FrAncestor_bulkdock_iter2

>  <name>  (1564) 
JSMOQJYMTVLASW-UHFFFAOYSA-N-P49

$$$$
CVVGEVPGHNYGOE-UHFFFAOYSA-N-P49
     RDKit          3D

 13 13  0  0  0  0  0  0  0  0999 V2000
    4.7977  -13.4169   24.3494 O   0  0  0  0  0  0  0  0  0  0  0  0
    3.7956  -12.9430   24.7011 C   0  0  0  0  0  0  0  0  0  0  0  0
    3.0925  -11.6534   24.2513 N   0  0  0  0  0  0  0  0  0  0  0  0
    3.5209  -10.6223   23.3390 C   0  0  0  0  0  0  0  0  0  0  0  0
    4.8484   -9.9771   23.7215 C   0  0  0  0  0  0  0  0  0  0  0  0
    4.7337   -9.3860   24.9406 F   0  0  0  0  0  0  0  0  0  0  0  0
    5.1230   -8.9754   22.8437 F   0  0  0  0  0  0  0  0  0  0  0  0
    2.9680  -13.5908   25.7050 C   0  0  0  0  0  0  0  0  0  0  0  0
    1.7661  -13.0206   26.0774 O   0  0  0  0  0  0  0  0  0  0  0  0
    1.2960  -13.8527   27.0426 C   0  0  0  0  0  0  0  0  0  0  0  0
    2.0366  -14.9006   27.2997 N   0  0  0  0  0  0  0  0  0  0  0  0
    3.1136  -14.7349   26.4595 C   0  0  0  0  0  0  0  0  0  0  0  0
    4.5470  -15.9463   26.4118 Br  0  0  0  0  0  0  0  0  0  0  0  0
  1  2  2  0
  2  3  1  0
  3  4  1  0
  4  5  1  0
  5  6  1  0
  5  7  1  0
  2  8  1  0
  8  9  1  0
  9 10  1  0
 10 11  2  0
 11 12  1  0
 12 13  1  0
 12  8  2  0
M  END
>  <inchikey>  (1565) 
CVVGEVPGHNYGOE-UHFFFAOYSA-N

>  <tags>  (1565) 
fragmenstein_placed,CpKRS_FrAncestor_bulkdock_iter2

>  <ref_pdb>  (1565) 
x0654b

>  <energy_score>  (1565) 
-4.247953

>  <distance_score>  (1565) 
0.411545

>  <HIPPO Pose ID>  (1565) 
61042

>  <ref_mols>  (1565) 
x0504b

>  <smiles>  (1565) 
O=C(NCC(F)F)c1ocnc1Br

>  <HIPPO Compound ID>  (1565) 
272683

>  <alias>  (1565) 
CVVGEVPGHNYGOE-UHFFFAOYSA-N-P49

>  <subsites>  (1565) 


>  <placement_batch>  (1565) 
CpKRS_FrAncestor_bulkdock_iter2

>  <name>  (1565) 
CVVGEVPGHNYGOE-UHFFFAOYSA-N-P49

$$$$
YSBWRKOKPPEYJA-UHFFFAOYSA-N-P47
     RDKit          3D

 16 16  0  0  0  0  0  0  0  0999 V2000
    3.4950    4.6283   42.4915 O   0  0  0  0  0  0  0  0  0  0  0  0
    3.0016    5.1074   43.4275 C   0  0  0  0  0  0  0  0  0  0  0  0
    2.3185    6.4646   43.6030 N   0  0  0  0  0  0  0  0  0  0  0  0
    2.1775    7.5736   42.6818 C   0  0  0  0  0  0  0  0  0  0  0  0
    3.3907    7.7424   41.7732 C   0  0  0  0  0  0  0  0  0  0  0  0
    4.4967    7.9381   42.5424 F   0  0  0  0  0  0  0  0  0  0  0  0
    3.2528    8.8501   41.0034 F   0  0  0  0  0  0  0  0  0  0  0  0
    3.0331    4.3938   44.6884 C   0  0  0  0  0  0  0  0  0  0  0  0
    2.4249    4.8864   45.8154 O   0  0  0  0  0  0  0  0  0  0  0  0
    2.6762    3.9427   46.7661 C   0  0  0  0  0  0  0  0  0  0  0  0
    3.3936    2.9193   46.3586 N   0  0  0  0  0  0  0  0  0  0  0  0
    3.6279    3.1901   45.0145 C   0  0  0  0  0  0  0  0  0  0  0  0
    4.3839    2.2943   44.0891 C   0  0  0  0  0  0  0  0  0  0  0  0
    5.4783    2.9027   43.5649 F   0  0  0  0  0  0  0  0  0  0  0  0
    4.8428    1.1744   44.7135 F   0  0  0  0  0  0  0  0  0  0  0  0
    3.6164    1.8652   43.0577 F   0  0  0  0  0  0  0  0  0  0  0  0
  1  2  2  0
  2  3  1  0
  3  4  1  0
  4  5  1  0
  5  6  1  0
  5  7  1  0
  2  8  1  0
  8  9  1  0
  9 10  1  0
 10 11  2  0
 11 12  1  0
 12 13  1  0
 13 14  1  0
 13 15  1  0
 13 16  1  0
 12  8  2  0
M  END
>  <inchikey>  (1566) 
YSBWRKOKPPEYJA-UHFFFAOYSA-N

>  <tags>  (1566) 
fragmenstein_placed,CpKRS_FrAncestor_bulkdock_iter2

>  <ref_pdb>  (1566) 
x0654b

>  <energy_score>  (1566) 
-13.919143

>  <distance_score>  (1566) 
0.33362

>  <HIPPO Pose ID>  (1566) 
61046

>  <ref_mols>  (1566) 
x0504c

>  <smiles>  (1566) 
O=C(NCC(F)F)c1ocnc1C(F)(F)F

>  <HIPPO Compound ID>  (1566) 
453139

>  <alias>  (1566) 
YSBWRKOKPPEYJA-UHFFFAOYSA-N-P47

>  <subsites>  (1566) 


>  <placement_batch>  (1566) 
CpKRS_FrAncestor_bulkdock_iter2

>  <name>  (1566) 
YSBWRKOKPPEYJA-UHFFFAOYSA-N-P47

$$$$
OOURSLWNQPUZEO-UHFFFAOYSA-N-P48
     RDKit          3D

 13 13  0  0  0  0  0  0  0  0999 V2000
    5.3868  -13.1825   25.1633 O   0  0  0  0  0  0  0  0  0  0  0  0
    4.2862  -13.1185   24.7951 C   0  0  0  0  0  0  0  0  0  0  0  0
    3.7010  -12.5165   23.5110 N   0  0  0  0  0  0  0  0  0  0  0  0
    4.3379  -11.7780   22.4465 C   0  0  0  0  0  0  0  0  0  0  0  0
    4.3000  -10.2708   22.6581 C   0  0  0  0  0  0  0  0  0  0  0  0
    4.9727   -9.8963   23.7720 F   0  0  0  0  0  0  0  0  0  0  0  0
    4.8890   -9.6355   21.6154 F   0  0  0  0  0  0  0  0  0  0  0  0
    3.2192  -13.6778   25.6230 C   0  0  0  0  0  0  0  0  0  0  0  0
    1.6327  -13.0367   25.6811 S   0  0  0  0  0  0  0  0  0  0  0  0
    1.0341  -14.0974   26.8085 N   0  0  0  0  0  0  0  0  0  0  0  0
    2.0265  -14.8961   27.1904 C   0  0  0  0  0  0  0  0  0  0  0  0
    3.2648  -14.7111   26.5314 C   0  0  0  0  0  0  0  0  0  0  0  0
    4.7363  -15.8105   26.8882 Br  0  0  0  0  0  0  0  0  0  0  0  0
  1  2  2  0
  2  3  1  0
  3  4  1  0
  4  5  1  0
  5  6  1  0
  5  7  1  0
  2  8  1  0
  8  9  1  0
  9 10  1  0
 10 11  2  0
 11 12  1  0
 12 13  1  0
 12  8  2  0
M  END
>  <inchikey>  (1567) 
OOURSLWNQPUZEO-UHFFFAOYSA-N

>  <tags>  (1567) 
fragmenstein_placed,CpKRS_FrAncestor_bulkdock_iter2

>  <ref_pdb>  (1567) 
x0654b

>  <energy_score>  (1567) 
-4.920151

>  <distance_score>  (1567) 
0.494223

>  <HIPPO Pose ID>  (1567) 
61047

>  <ref_mols>  (1567) 
x0504a

>  <smiles>  (1567) 
O=C(NCC(F)F)c1sncc1Br

>  <HIPPO Compound ID>  (1567) 
272681

>  <alias>  (1567) 
OOURSLWNQPUZEO-UHFFFAOYSA-N-P48

>  <subsites>  (1567) 


>  <placement_batch>  (1567) 
CpKRS_FrAncestor_bulkdock_iter2

>  <name>  (1567) 
OOURSLWNQPUZEO-UHFFFAOYSA-N-P48

$$$$
IPYMPIRKGYYXNU-UHFFFAOYSA-N-P48
     RDKit          3D

 16 16  0  0  0  0  0  0  0  0999 V2000
    5.2223  -14.1777   24.8858 O   0  0  0  0  0  0  0  0  0  0  0  0
    4.1967  -13.6309   24.8434 C   0  0  0  0  0  0  0  0  0  0  0  0
    3.7012  -12.5157   23.9104 N   0  0  0  0  0  0  0  0  0  0  0  0
    4.3337  -11.8987   22.7634 C   0  0  0  0  0  0  0  0  0  0  0  0
    4.2604  -10.3787   22.7684 C   0  0  0  0  0  0  0  0  0  0  0  0
    4.8746   -9.8680   21.6743 F   0  0  0  0  0  0  0  0  0  0  0  0
    4.8899   -9.8548   23.8490 F   0  0  0  0  0  0  0  0  0  0  0  0
    3.1688  -13.9851   25.8294 C   0  0  0  0  0  0  0  0  0  0  0  0
    1.6334  -13.2343   25.9136 S   0  0  0  0  0  0  0  0  0  0  0  0
    1.0599  -14.1124   27.1857 N   0  0  0  0  0  0  0  0  0  0  0  0
    2.0139  -14.9447   27.5808 C   0  0  0  0  0  0  0  0  0  0  0  0
    3.2345  -14.9403   26.8382 C   0  0  0  0  0  0  0  0  0  0  0  0
    4.3608  -15.8496   27.1324 C   0  0  0  0  0  0  0  0  0  0  0  0
    4.1494  -16.5073   28.3070 F   0  0  0  0  0  0  0  0  0  0  0  0
    5.5571  -15.2318   27.2713 F   0  0  0  0  0  0  0  0  0  0  0  0
    4.5048  -16.8047   26.1792 F   0  0  0  0  0  0  0  0  0  0  0  0
  1  2  2  0
  2  3  1  0
  3  4  1  0
  4  5  1  0
  5  6  1  0
  5  7  1  0
  2  8  1  0
  8  9  1  0
  9 10  1  0
 10 11  2  0
 11 12  1  0
 12 13  1  0
 13 14  1  0
 13 15  1  0
 13 16  1  0
 12  8  2  0
M  END
>  <inchikey>  (1568) 
IPYMPIRKGYYXNU-UHFFFAOYSA-N

>  <tags>  (1568) 
fragmenstein_placed,CpKRS_FrAncestor_bulkdock_iter2

>  <ref_pdb>  (1568) 
x0654b

>  <energy_score>  (1568) 
-2.637004

>  <distance_score>  (1568) 
0.364688

>  <HIPPO Pose ID>  (1568) 
61050

>  <ref_mols>  (1568) 
x0504a

>  <smiles>  (1568) 
O=C(NCC(F)F)c1sncc1C(F)(F)F

>  <HIPPO Compound ID>  (1568) 
453140

>  <alias>  (1568) 
IPYMPIRKGYYXNU-UHFFFAOYSA-N-P48

>  <subsites>  (1568) 


>  <placement_batch>  (1568) 
CpKRS_FrAncestor_bulkdock_iter2

>  <name>  (1568) 
IPYMPIRKGYYXNU-UHFFFAOYSA-N-P48

$$$$
MFWOXJPOLLBZQB-UHFFFAOYSA-N-P48
     RDKit          3D

 17 17  0  0  0  0  0  0  0  0999 V2000
    5.1977  -13.9594   24.8989 O   0  0  0  0  0  0  0  0  0  0  0  0
    4.1361  -13.4865   24.8887 C   0  0  0  0  0  0  0  0  0  0  0  0
    3.5407  -12.4028   23.9855 N   0  0  0  0  0  0  0  0  0  0  0  0
    4.0978  -11.7298   22.8304 C   0  0  0  0  0  0  0  0  0  0  0  0
    4.3260  -10.2214   22.9777 C   0  0  0  0  0  0  0  0  0  0  0  0
    5.1805   -9.9475   23.9927 F   0  0  0  0  0  0  0  0  0  0  0  0
    4.8999   -9.7333   21.8467 F   0  0  0  0  0  0  0  0  0  0  0  0
    2.8089   -9.3201   23.2695 Cl  0  0  0  0  0  0  0  0  0  0  0  0
    3.1133  -13.8867   25.8549 C   0  0  0  0  0  0  0  0  0  0  0  0
    1.8550  -13.3003   25.9354 N   0  0  0  0  0  0  0  0  0  0  0  0
    1.2847  -13.9362   26.9352 C   0  0  0  0  0  0  0  0  0  0  0  0
    2.0398  -14.9136   27.5044 O   0  0  0  0  0  0  0  0  0  0  0  0
    3.2200  -14.8811   26.8005 C   0  0  0  0  0  0  0  0  0  0  0  0
    4.2762  -15.8463   27.1400 C   0  0  0  0  0  0  0  0  0  0  0  0
    5.5022  -15.2830   27.2810 F   0  0  0  0  0  0  0  0  0  0  0  0
    4.3984  -16.8155   26.1971 F   0  0  0  0  0  0  0  0  0  0  0  0
    4.0211  -16.4761   28.3190 F   0  0  0  0  0  0  0  0  0  0  0  0
  1  2  2  0
  2  3  1  0
  3  4  1  0
  4  5  1  0
  5  6  1  0
  5  7  1  0
  5  8  1  0
  2  9  1  0
  9 10  1  0
 10 11  2  0
 11 12  1  0
 12 13  1  0
 13 14  1  0
 14 15  1  0
 14 16  1  0
 14 17  1  0
 13  9  2  0
M  END
>  <inchikey>  (1569) 
MFWOXJPOLLBZQB-UHFFFAOYSA-N

>  <tags>  (1569) 
fragmenstein_placed,CpKRS_FrAncestor_bulkdock_iter2

>  <ref_pdb>  (1569) 
x0654b

>  <energy_score>  (1569) 
-23.009848

>  <distance_score>  (1569) 
0.384211

>  <HIPPO Pose ID>  (1569) 
61059

>  <ref_mols>  (1569) 
x0504a

>  <smiles>  (1569) 
O=C(NCC(F)(F)Cl)c1ncoc1C(F)(F)F

>  <HIPPO Compound ID>  (1569) 
453141

>  <alias>  (1569) 
MFWOXJPOLLBZQB-UHFFFAOYSA-N-P48

>  <subsites>  (1569) 


>  <placement_batch>  (1569) 
CpKRS_FrAncestor_bulkdock_iter2

>  <name>  (1569) 
MFWOXJPOLLBZQB-UHFFFAOYSA-N-P48

$$$$
MVYSAAZERMBTBG-UHFFFAOYSA-N-P48
     RDKit          3D

 17 17  0  0  0  0  0  0  0  0999 V2000
    5.1673  -14.0266   24.8710 O   0  0  0  0  0  0  0  0  0  0  0  0
    4.1261  -13.5105   24.8978 C   0  0  0  0  0  0  0  0  0  0  0  0
    3.5479  -12.3918   24.0211 N   0  0  0  0  0  0  0  0  0  0  0  0
    4.0982  -11.7297   22.8545 C   0  0  0  0  0  0  0  0  0  0  0  0
    4.3218  -10.2190   22.9825 C   0  0  0  0  0  0  0  0  0  0  0  0
    5.1797   -9.9295   23.9897 F   0  0  0  0  0  0  0  0  0  0  0  0
    4.8839   -9.7389   21.8429 F   0  0  0  0  0  0  0  0  0  0  0  0
    2.7996   -9.3254   23.2773 Cl  0  0  0  0  0  0  0  0  0  0  0  0
    3.1348  -13.8967   25.8855 C   0  0  0  0  0  0  0  0  0  0  0  0
    1.9290  -13.2364   25.9627 O   0  0  0  0  0  0  0  0  0  0  0  0
    1.2772  -13.8508   26.9874 C   0  0  0  0  0  0  0  0  0  0  0  0
    1.9327  -14.8352   27.5531 N   0  0  0  0  0  0  0  0  0  0  0  0
    3.1389  -14.8795   26.8565 C   0  0  0  0  0  0  0  0  0  0  0  0
    4.2145  -15.8664   27.1426 C   0  0  0  0  0  0  0  0  0  0  0  0
    4.3251  -16.7981   26.1598 F   0  0  0  0  0  0  0  0  0  0  0  0
    5.4388  -15.3008   27.2867 F   0  0  0  0  0  0  0  0  0  0  0  0
    3.9804  -16.5435   28.3004 F   0  0  0  0  0  0  0  0  0  0  0  0
  1  2  2  0
  2  3  1  0
  3  4  1  0
  4  5  1  0
  5  6  1  0
  5  7  1  0
  5  8  1  0
  2  9  1  0
  9 10  1  0
 10 11  1  0
 11 12  2  0
 12 13  1  0
 13 14  1  0
 14 15  1  0
 14 16  1  0
 14 17  1  0
 13  9  2  0
M  END
>  <inchikey>  (1570) 
MVYSAAZERMBTBG-UHFFFAOYSA-N

>  <tags>  (1570) 
fragmenstein_placed,CpKRS_FrAncestor_bulkdock_iter2

>  <ref_pdb>  (1570) 
x0654b

>  <energy_score>  (1570) 
-11.307506

>  <distance_score>  (1570) 
0.400242

>  <HIPPO Pose ID>  (1570) 
61062

>  <ref_mols>  (1570) 
x0504a

>  <smiles>  (1570) 
O=C(NCC(F)(F)Cl)c1ocnc1C(F)(F)F

>  <HIPPO Compound ID>  (1570) 
453142

>  <alias>  (1570) 
MVYSAAZERMBTBG-UHFFFAOYSA-N-P48

>  <subsites>  (1570) 


>  <placement_batch>  (1570) 
CpKRS_FrAncestor_bulkdock_iter2

>  <name>  (1570) 
MVYSAAZERMBTBG-UHFFFAOYSA-N-P48

$$$$
FQFZRHNZXSJPGH-UHFFFAOYSA-N-P48
     RDKit          3D

 17 17  0  0  0  0  0  0  0  0999 V2000
    5.0101  -14.2514   24.6195 O   0  0  0  0  0  0  0  0  0  0  0  0
    4.0546  -13.6022   24.7529 C   0  0  0  0  0  0  0  0  0  0  0  0
    3.5862  -12.3531   23.9926 N   0  0  0  0  0  0  0  0  0  0  0  0
    4.1520  -11.6874   22.8347 C   0  0  0  0  0  0  0  0  0  0  0  0
    4.3581  -10.1753   22.9623 C   0  0  0  0  0  0  0  0  0  0  0  0
    5.2090   -9.8807   23.9741 F   0  0  0  0  0  0  0  0  0  0  0  0
    4.9199   -9.6891   21.8259 F   0  0  0  0  0  0  0  0  0  0  0  0
    2.8263   -9.3000   23.2554 Cl  0  0  0  0  0  0  0  0  0  0  0  0
    3.1021  -13.9634   25.8072 C   0  0  0  0  0  0  0  0  0  0  0  0
    1.5455  -13.2700   25.9559 S   0  0  0  0  0  0  0  0  0  0  0  0
    1.0655  -14.1601   27.2592 N   0  0  0  0  0  0  0  0  0  0  0  0
    2.0657  -14.9577   27.6105 C   0  0  0  0  0  0  0  0  0  0  0  0
    3.2530  -14.9067   26.8178 C   0  0  0  0  0  0  0  0  0  0  0  0
    4.4360  -15.7553   27.0728 C   0  0  0  0  0  0  0  0  0  0  0  0
    4.5331  -16.7767   26.1856 F   0  0  0  0  0  0  0  0  0  0  0  0
    5.6110  -15.0848   27.0494 F   0  0  0  0  0  0  0  0  0  0  0  0
    4.3612  -16.3261   28.3091 F   0  0  0  0  0  0  0  0  0  0  0  0
  1  2  2  0
  2  3  1  0
  3  4  1  0
  4  5  1  0
  5  6  1  0
  5  7  1  0
  5  8  1  0
  2  9  1  0
  9 10  1  0
 10 11  1  0
 11 12  2  0
 12 13  1  0
 13 14  1  0
 14 15  1  0
 14 16  1  0
 14 17  1  0
 13  9  2  0
M  END
>  <inchikey>  (1571) 
FQFZRHNZXSJPGH-UHFFFAOYSA-N

>  <tags>  (1571) 
fragmenstein_placed,CpKRS_FrAncestor_bulkdock_iter2

>  <ref_pdb>  (1571) 
x0654b

>  <energy_score>  (1571) 
-5.381723

>  <distance_score>  (1571) 
0.378697

>  <HIPPO Pose ID>  (1571) 
61065

>  <ref_mols>  (1571) 
x0504a

>  <smiles>  (1571) 
O=C(NCC(F)(F)Cl)c1sncc1C(F)(F)F

>  <HIPPO Compound ID>  (1571) 
453143

>  <alias>  (1571) 
FQFZRHNZXSJPGH-UHFFFAOYSA-N-P48

>  <subsites>  (1571) 


>  <placement_batch>  (1571) 
CpKRS_FrAncestor_bulkdock_iter2

>  <name>  (1571) 
FQFZRHNZXSJPGH-UHFFFAOYSA-N-P48

$$$$
XMTUANCMEOUXFM-UHFFFAOYSA-N-P49
     RDKit          3D

 15 15  0  0  0  0  0  0  0  0999 V2000
    5.1989  -13.4372   25.0092 O   0  0  0  0  0  0  0  0  0  0  0  0
    4.1085  -13.0775   24.8322 C   0  0  0  0  0  0  0  0  0  0  0  0
    3.5509  -12.0418   23.8463 N   0  0  0  0  0  0  0  0  0  0  0  0
    4.2352  -11.1522   22.9261 C   0  0  0  0  0  0  0  0  0  0  0  0
    4.4514   -9.7330   23.4577 C   0  0  0  0  0  0  0  0  0  0  0  0
    5.3699   -9.0696   22.7194 F   0  0  0  0  0  0  0  0  0  0  0  0
    4.8688   -9.7169   24.7415 F   0  0  0  0  0  0  0  0  0  0  0  0
    3.3023   -9.0096   23.3876 F   0  0  0  0  0  0  0  0  0  0  0  0
    3.0481  -13.6485   25.6919 C   0  0  0  0  0  0  0  0  0  0  0  0
    3.1792  -14.8681   26.4646 C   0  0  0  0  0  0  0  0  0  0  0  0
    4.5273  -15.9217   26.4473 Cl  0  0  0  0  0  0  0  0  0  0  0  0
    2.1565  -15.2349   27.2383 N   0  0  0  0  0  0  0  0  0  0  0  0
    0.9706  -14.1023   27.0937 S   0  0  0  0  0  0  0  0  0  0  0  0
    1.8014  -13.1250   25.9848 C   0  0  0  0  0  0  0  0  0  0  0  0
    1.0221  -11.6908   25.4498 Cl  0  0  0  0  0  0  0  0  0  0  0  0
  1  2  2  0
  2  3  1  0
  3  4  1  0
  4  5  1  0
  5  6  1  0
  5  7  1  0
  5  8  1  0
  2  9  1  0
  9 10  1  0
 10 11  1  0
 10 12  2  0
 12 13  1  0
 13 14  1  0
 14 15  1  0
 14  9  2  0
M  END
>  <inchikey>  (1572) 
XMTUANCMEOUXFM-UHFFFAOYSA-N

>  <tags>  (1572) 
fragmenstein_placed,CpKRS_FrAncestor_bulkdock_iter2

>  <ref_pdb>  (1572) 
x0654b

>  <energy_score>  (1572) 
-12.513953

>  <distance_score>  (1572) 
0.334976

>  <HIPPO Pose ID>  (1572) 
61069

>  <ref_mols>  (1572) 
x0504b

>  <smiles>  (1572) 
O=C(NCC(F)(F)F)c1c(Cl)nsc1Cl

>  <HIPPO Compound ID>  (1572) 
453144

>  <alias>  (1572) 
XMTUANCMEOUXFM-UHFFFAOYSA-N-P49

>  <subsites>  (1572) 


>  <placement_batch>  (1572) 
CpKRS_FrAncestor_bulkdock_iter2

>  <name>  (1572) 
XMTUANCMEOUXFM-UHFFFAOYSA-N-P49

$$$$
YLBBLCLUCSIYTC-UHFFFAOYSA-N-P49
     RDKit          3D

 14 14  0  0  0  0  0  0  0  0999 V2000
    5.0982  -13.5730   24.9974 O   0  0  0  0  0  0  0  0  0  0  0  0
    4.0341  -13.1241   24.8649 C   0  0  0  0  0  0  0  0  0  0  0  0
    3.5299  -12.0262   23.9222 N   0  0  0  0  0  0  0  0  0  0  0  0
    4.2525  -11.1713   22.9985 C   0  0  0  0  0  0  0  0  0  0  0  0
    4.4710   -9.7407   23.4938 C   0  0  0  0  0  0  0  0  0  0  0  0
    5.3870   -9.0958   22.7360 F   0  0  0  0  0  0  0  0  0  0  0  0
    3.3224   -9.0179   23.4128 F   0  0  0  0  0  0  0  0  0  0  0  0
    4.8952   -9.6948   24.7746 F   0  0  0  0  0  0  0  0  0  0  0  0
    2.9639  -13.6496   25.7413 C   0  0  0  0  0  0  0  0  0  0  0  0
    3.1888  -14.8035   26.5889 C   0  0  0  0  0  0  0  0  0  0  0  0
    2.1997  -15.2174   27.3776 N   0  0  0  0  0  0  0  0  0  0  0  0
    0.9212  -14.1995   27.1554 S   0  0  0  0  0  0  0  0  0  0  0  0
    1.6769  -13.2070   25.9930 C   0  0  0  0  0  0  0  0  0  0  0  0
    0.7402  -11.7041   25.2733 Br  0  0  0  0  0  0  0  0  0  0  0  0
  1  2  2  0
  2  3  1  0
  3  4  1  0
  4  5  1  0
  5  6  1  0
  5  7  1  0
  5  8  1  0
  2  9  1  0
  9 10  1  0
 10 11  2  0
 11 12  1  0
 12 13  1  0
 13 14  1  0
 13  9  2  0
M  END
>  <inchikey>  (1573) 
YLBBLCLUCSIYTC-UHFFFAOYSA-N

>  <tags>  (1573) 
fragmenstein_placed,CpKRS_FrAncestor_bulkdock_iter2

>  <ref_pdb>  (1573) 
x0654b

>  <energy_score>  (1573) 
-9.808966

>  <distance_score>  (1573) 
0.333349

>  <HIPPO Pose ID>  (1573) 
61081

>  <ref_mols>  (1573) 
x0504b

>  <smiles>  (1573) 
O=C(NCC(F)(F)F)c1cnsc1Br

>  <HIPPO Compound ID>  (1573) 
278126

>  <alias>  (1573) 
YLBBLCLUCSIYTC-UHFFFAOYSA-N-P49

>  <subsites>  (1573) 


>  <placement_batch>  (1573) 
CpKRS_FrAncestor_bulkdock_iter2

>  <name>  (1573) 
YLBBLCLUCSIYTC-UHFFFAOYSA-N-P49

$$$$
HVYPUYUNFKXIOE-UHFFFAOYSA-N-P47
     RDKit          3D

 17 17  0  0  0  0  0  0  0  0999 V2000
    4.0216    4.7080   42.5460 O   0  0  0  0  0  0  0  0  0  0  0  0
    3.1817    5.1597   43.2053 C   0  0  0  0  0  0  0  0  0  0  0  0
    2.2366    6.3317   42.9405 N   0  0  0  0  0  0  0  0  0  0  0  0
    2.1849    7.2690   41.8354 C   0  0  0  0  0  0  0  0  0  0  0  0
    3.2381    8.3712   41.9127 C   0  0  0  0  0  0  0  0  0  0  0  0
    4.3684    7.9471   42.5264 F   0  0  0  0  0  0  0  0  0  0  0  0
    3.5683    8.8099   40.6795 F   0  0  0  0  0  0  0  0  0  0  0  0
    2.7612    9.4269   42.6081 F   0  0  0  0  0  0  0  0  0  0  0  0
    2.9978    4.5725   44.5471 C   0  0  0  0  0  0  0  0  0  0  0  0
    2.3186    5.1172   45.6256 C   0  0  0  0  0  0  0  0  0  0  0  0
    2.4237    4.0620   46.9606 S   0  0  0  0  0  0  0  0  0  0  0  0
    3.3675    2.9363   46.2215 N   0  0  0  0  0  0  0  0  0  0  0  0
    3.5937    3.2989   44.9504 C   0  0  0  0  0  0  0  0  0  0  0  0
    4.3820    2.3777   44.0394 C   0  0  0  0  0  0  0  0  0  0  0  0
    3.6493    2.0085   42.9577 F   0  0  0  0  0  0  0  0  0  0  0  0
    4.7428    1.2162   44.6583 F   0  0  0  0  0  0  0  0  0  0  0  0
    5.5409    2.9276   43.6017 F   0  0  0  0  0  0  0  0  0  0  0  0
  1  2  2  0
  2  3  1  0
  3  4  1  0
  4  5  1  0
  5  6  1  0
  5  7  1  0
  5  8  1  0
  2  9  1  0
  9 10  2  0
 10 11  1  0
 11 12  1  0
 12 13  2  0
 13 14  1  0
 14 15  1  0
 14 16  1  0
 14 17  1  0
 13  9  1  0
M  END
>  <inchikey>  (1574) 
HVYPUYUNFKXIOE-UHFFFAOYSA-N

>  <tags>  (1574) 
fragmenstein_placed,CpKRS_FrAncestor_bulkdock_iter2

>  <ref_pdb>  (1574) 
x0654b

>  <energy_score>  (1574) 
-7.224537

>  <distance_score>  (1574) 
0.453348

>  <HIPPO Pose ID>  (1574) 
61085

>  <ref_mols>  (1574) 
x0504c

>  <smiles>  (1574) 
O=C(NCC(F)(F)F)c1csnc1C(F)(F)F

>  <HIPPO Compound ID>  (1574) 
453146

>  <alias>  (1574) 
HVYPUYUNFKXIOE-UHFFFAOYSA-N-P47

>  <subsites>  (1574) 


>  <placement_batch>  (1574) 
CpKRS_FrAncestor_bulkdock_iter2

>  <name>  (1574) 
HVYPUYUNFKXIOE-UHFFFAOYSA-N-P47

$$$$
ADTIKEVTGVBMOJ-UHFFFAOYSA-N-P48
     RDKit          3D

 16 16  0  0  0  0  0  0  0  0999 V2000
    5.2407  -13.3822   25.1927 O   0  0  0  0  0  0  0  0  0  0  0  0
    4.1316  -13.1765   24.9126 C   0  0  0  0  0  0  0  0  0  0  0  0
    3.5322  -12.3866   23.7428 N   0  0  0  0  0  0  0  0  0  0  0  0
    4.1735  -11.7551   22.6054 C   0  0  0  0  0  0  0  0  0  0  0  0
    4.3192  -10.2376   22.7190 C   0  0  0  0  0  0  0  0  0  0  0  0
    3.1058   -9.6216   22.7193 F   0  0  0  0  0  0  0  0  0  0  0  0
    4.9519   -9.8549   23.8486 F   0  0  0  0  0  0  0  0  0  0  0  0
    5.0119   -9.7347   21.6725 F   0  0  0  0  0  0  0  0  0  0  0  0
    3.0756  -13.6952   25.8043 C   0  0  0  0  0  0  0  0  0  0  0  0
    1.7925  -13.1902   25.9546 C   0  0  0  0  0  0  0  0  0  0  0  0
    0.9500  -14.0956   27.1314 S   0  0  0  0  0  0  0  0  0  0  0  0
    2.1951  -15.1101   27.4859 N   0  0  0  0  0  0  0  0  0  0  0  0
    3.2652  -14.7835   26.7512 C   0  0  0  0  0  0  0  0  0  0  0  0
    4.5473  -15.5380   26.9536 C   0  0  0  0  0  0  0  0  0  0  0  0
    4.7515  -16.4513   25.9616 F   0  0  0  0  0  0  0  0  0  0  0  0
    4.5555  -16.2394   28.1238 F   0  0  0  0  0  0  0  0  0  0  0  0
  1  2  2  0
  2  3  1  0
  3  4  1  0
  4  5  1  0
  5  6  1  0
  5  7  1  0
  5  8  1  0
  2  9  1  0
  9 10  2  0
 10 11  1  0
 11 12  1  0
 12 13  2  0
 13 14  1  0
 14 15  1  0
 14 16  1  0
 13  9  1  0
M  END
>  <inchikey>  (1575) 
ADTIKEVTGVBMOJ-UHFFFAOYSA-N

>  <tags>  (1575) 
fragmenstein_placed,CpKRS_FrAncestor_bulkdock_iter2

>  <ref_pdb>  (1575) 
x0654b

>  <energy_score>  (1575) 
-19.857826

>  <distance_score>  (1575) 
0.331049

>  <HIPPO Pose ID>  (1575) 
61086

>  <ref_mols>  (1575) 
x0504a

>  <smiles>  (1575) 
O=C(NCC(F)(F)F)c1csnc1C(F)F

>  <HIPPO Compound ID>  (1575) 
453147

>  <alias>  (1575) 
ADTIKEVTGVBMOJ-UHFFFAOYSA-N-P48

>  <subsites>  (1575) 


>  <placement_batch>  (1575) 
CpKRS_FrAncestor_bulkdock_iter2

>  <name>  (1575) 
ADTIKEVTGVBMOJ-UHFFFAOYSA-N-P48

$$$$
NEHZUNDBLZJKRC-UHFFFAOYSA-N-P47
     RDKit          3D

 17 17  0  0  0  0  0  0  0  0999 V2000
    3.5928    4.6147   42.5274 O   0  0  0  0  0  0  0  0  0  0  0  0
    3.0494    5.1040   43.4279 C   0  0  0  0  0  0  0  0  0  0  0  0
    2.3875    6.4719   43.5594 N   0  0  0  0  0  0  0  0  0  0  0  0
    2.1646    7.5112   42.5706 C   0  0  0  0  0  0  0  0  0  0  0  0
    3.4040    7.8455   41.7383 C   0  0  0  0  0  0  0  0  0  0  0  0
    3.2370    8.9981   41.0521 F   0  0  0  0  0  0  0  0  0  0  0  0
    3.6960    6.8881   40.8343 F   0  0  0  0  0  0  0  0  0  0  0  0
    4.4888    8.0000   42.5370 F   0  0  0  0  0  0  0  0  0  0  0  0
    3.0192    4.4219   44.7193 C   0  0  0  0  0  0  0  0  0  0  0  0
    2.4122    4.9041   45.8665 N   0  0  0  0  0  0  0  0  0  0  0  0
    2.6551    3.9686   46.7594 C   0  0  0  0  0  0  0  0  0  0  0  0
    3.3895    2.9126   46.3056 O   0  0  0  0  0  0  0  0  0  0  0  0
    3.6206    3.2122   44.9852 C   0  0  0  0  0  0  0  0  0  0  0  0
    4.3829    2.2778   44.1327 C   0  0  0  0  0  0  0  0  0  0  0  0
    3.6364    1.8103   43.1037 F   0  0  0  0  0  0  0  0  0  0  0  0
    5.4968    2.8487   43.6145 F   0  0  0  0  0  0  0  0  0  0  0  0
    4.8062    1.1849   44.8244 F   0  0  0  0  0  0  0  0  0  0  0  0
  1  2  2  0
  2  3  1  0
  3  4  1  0
  4  5  1  0
  5  6  1  0
  5  7  1  0
  5  8  1  0
  2  9  1  0
  9 10  1  0
 10 11  2  0
 11 12  1  0
 12 13  1  0
 13 14  1  0
 14 15  1  0
 14 16  1  0
 14 17  1  0
 13  9  2  0
M  END
>  <inchikey>  (1576) 
NEHZUNDBLZJKRC-UHFFFAOYSA-N

>  <tags>  (1576) 
fragmenstein_placed,CpKRS_FrAncestor_bulkdock_iter2

>  <ref_pdb>  (1576) 
x0654b

>  <energy_score>  (1576) 
-28.521238

>  <distance_score>  (1576) 
0.347818

>  <HIPPO Pose ID>  (1576) 
61091

>  <ref_mols>  (1576) 
x0504c

>  <smiles>  (1576) 
O=C(NCC(F)(F)F)c1ncoc1C(F)(F)F

>  <HIPPO Compound ID>  (1576) 
453148

>  <alias>  (1576) 
NEHZUNDBLZJKRC-UHFFFAOYSA-N-P47

>  <subsites>  (1576) 


>  <placement_batch>  (1576) 
CpKRS_FrAncestor_bulkdock_iter2

>  <name>  (1576) 
NEHZUNDBLZJKRC-UHFFFAOYSA-N-P47

$$$$
SMFRHMLXHGTJBY-UHFFFAOYSA-N-P49
     RDKit          3D

 16 16  0  0  0  0  0  0  0  0999 V2000
    5.0277  -13.5574   24.5552 O   0  0  0  0  0  0  0  0  0  0  0  0
    3.9514  -13.1636   24.7484 C   0  0  0  0  0  0  0  0  0  0  0  0
    3.2062  -11.9749   24.1397 N   0  0  0  0  0  0  0  0  0  0  0  0
    3.6596  -10.9490   23.2244 C   0  0  0  0  0  0  0  0  0  0  0  0
    4.7175  -10.0064   23.8013 C   0  0  0  0  0  0  0  0  0  0  0  0
    5.0144   -9.0280   22.9129 F   0  0  0  0  0  0  0  0  0  0  0  0
    5.8620  -10.6430   24.1126 F   0  0  0  0  0  0  0  0  0  0  0  0
    4.2733   -9.3982   24.9249 F   0  0  0  0  0  0  0  0  0  0  0  0
    3.0814  -13.8018   25.7356 C   0  0  0  0  0  0  0  0  0  0  0  0
    1.7747  -13.4094   26.0057 N   0  0  0  0  0  0  0  0  0  0  0  0
    1.4170  -14.2248   26.9727 C   0  0  0  0  0  0  0  0  0  0  0  0
    2.3581  -15.1186   27.3682 O   0  0  0  0  0  0  0  0  0  0  0  0
    3.4357  -14.8386   26.5703 C   0  0  0  0  0  0  0  0  0  0  0  0
    4.6806  -15.5990   26.7631 C   0  0  0  0  0  0  0  0  0  0  0  0
    4.6897  -16.7395   26.0215 F   0  0  0  0  0  0  0  0  0  0  0  0
    4.8199  -15.9845   28.0615 F   0  0  0  0  0  0  0  0  0  0  0  0
  1  2  2  0
  2  3  1  0
  3  4  1  0
  4  5  1  0
  5  6  1  0
  5  7  1  0
  5  8  1  0
  2  9  1  0
  9 10  1  0
 10 11  2  0
 11 12  1  0
 12 13  1  0
 13 14  1  0
 14 15  1  0
 14 16  1  0
 13  9  2  0
M  END
>  <inchikey>  (1577) 
SMFRHMLXHGTJBY-UHFFFAOYSA-N

>  <tags>  (1577) 
fragmenstein_placed,CpKRS_FrAncestor_bulkdock_iter2

>  <ref_pdb>  (1577) 
x0654b

>  <energy_score>  (1577) 
-29.91309

>  <distance_score>  (1577) 
0.315956

>  <HIPPO Pose ID>  (1577) 
61093

>  <ref_mols>  (1577) 
x0504b

>  <smiles>  (1577) 
O=C(NCC(F)(F)F)c1ncoc1C(F)F

>  <HIPPO Compound ID>  (1577) 
453149

>  <alias>  (1577) 
SMFRHMLXHGTJBY-UHFFFAOYSA-N-P49

>  <subsites>  (1577) 


>  <placement_batch>  (1577) 
CpKRS_FrAncestor_bulkdock_iter2

>  <name>  (1577) 
SMFRHMLXHGTJBY-UHFFFAOYSA-N-P49

$$$$
NJQUZYRHPYHTNN-UHFFFAOYSA-N-P48
     RDKit          3D

 14 14  0  0  0  0  0  0  0  0999 V2000
    5.2435  -13.5247   25.0391 O   0  0  0  0  0  0  0  0  0  0  0  0
    4.1463  -13.1775   24.8755 C   0  0  0  0  0  0  0  0  0  0  0  0
    3.5459  -12.2465   23.8139 N   0  0  0  0  0  0  0  0  0  0  0  0
    4.1565  -11.6152   22.6628 C   0  0  0  0  0  0  0  0  0  0  0  0
    4.3122  -10.1015   22.7593 C   0  0  0  0  0  0  0  0  0  0  0  0
    4.9497   -9.7098   23.8824 F   0  0  0  0  0  0  0  0  0  0  0  0
    3.1020   -9.4772   22.7536 F   0  0  0  0  0  0  0  0  0  0  0  0
    5.0046   -9.6155   21.7044 F   0  0  0  0  0  0  0  0  0  0  0  0
    3.0830  -13.6196   25.7613 C   0  0  0  0  0  0  0  0  0  0  0  0
    1.8594  -12.9816   25.7595 O   0  0  0  0  0  0  0  0  0  0  0  0
    1.1552  -13.6238   26.7345 C   0  0  0  0  0  0  0  0  0  0  0  0
    1.7771  -14.6220   27.3139 N   0  0  0  0  0  0  0  0  0  0  0  0
    3.0063  -14.6192   26.7042 C   0  0  0  0  0  0  0  0  0  0  0  0
    4.3347  -15.8697   27.1199 Br  0  0  0  0  0  0  0  0  0  0  0  0
  1  2  2  0
  2  3  1  0
  3  4  1  0
  4  5  1  0
  5  6  1  0
  5  7  1  0
  5  8  1  0
  2  9  1  0
  9 10  1  0
 10 11  1  0
 11 12  2  0
 12 13  1  0
 13 14  1  0
 13  9  2  0
M  END
>  <inchikey>  (1578) 
NJQUZYRHPYHTNN-UHFFFAOYSA-N

>  <tags>  (1578) 
fragmenstein_placed,CpKRS_FrAncestor_bulkdock_iter2

>  <ref_pdb>  (1578) 
x0654b

>  <energy_score>  (1578) 
-4.106997

>  <distance_score>  (1578) 
0.463705

>  <HIPPO Pose ID>  (1578) 
61095

>  <ref_mols>  (1578) 
x0504a

>  <smiles>  (1578) 
O=C(NCC(F)(F)F)c1ocnc1Br

>  <HIPPO Compound ID>  (1578) 
278125

>  <alias>  (1578) 
NJQUZYRHPYHTNN-UHFFFAOYSA-N-P48

>  <subsites>  (1578) 


>  <placement_batch>  (1578) 
CpKRS_FrAncestor_bulkdock_iter2

>  <name>  (1578) 
NJQUZYRHPYHTNN-UHFFFAOYSA-N-P48

$$$$
FLRLGSRGQYWVEH-UHFFFAOYSA-N-P48
     RDKit          3D

 17 17  0  0  0  0  0  0  0  0999 V2000
    5.2666  -13.9508   24.8955 O   0  0  0  0  0  0  0  0  0  0  0  0
    4.1994  -13.4931   24.8371 C   0  0  0  0  0  0  0  0  0  0  0  0
    3.5891  -12.5193   23.8197 N   0  0  0  0  0  0  0  0  0  0  0  0
    4.1964  -11.8209   22.7003 C   0  0  0  0  0  0  0  0  0  0  0  0
    4.2981  -10.3038   22.8426 C   0  0  0  0  0  0  0  0  0  0  0  0
    4.9249   -9.9243   23.9762 F   0  0  0  0  0  0  0  0  0  0  0  0
    4.9690   -9.7588   21.8027 F   0  0  0  0  0  0  0  0  0  0  0  0
    3.0669   -9.7257   22.8596 F   0  0  0  0  0  0  0  0  0  0  0  0
    3.1901  -13.8572   25.8155 C   0  0  0  0  0  0  0  0  0  0  0  0
    1.9857  -13.1925   25.8619 O   0  0  0  0  0  0  0  0  0  0  0  0
    1.3185  -13.7821   26.8919 C   0  0  0  0  0  0  0  0  0  0  0  0
    1.9585  -14.7644   27.4792 N   0  0  0  0  0  0  0  0  0  0  0  0
    3.1756  -14.8238   26.8036 C   0  0  0  0  0  0  0  0  0  0  0  0
    4.2350  -15.8227   27.1120 C   0  0  0  0  0  0  0  0  0  0  0  0
    3.9747  -16.4976   28.2648 F   0  0  0  0  0  0  0  0  0  0  0  0
    4.3472  -16.7572   26.1306 F   0  0  0  0  0  0  0  0  0  0  0  0
    5.4668  -15.2762   27.2741 F   0  0  0  0  0  0  0  0  0  0  0  0
  1  2  2  0
  2  3  1  0
  3  4  1  0
  4  5  1  0
  5  6  1  0
  5  7  1  0
  5  8  1  0
  2  9  1  0
  9 10  1  0
 10 11  1  0
 11 12  2  0
 12 13  1  0
 13 14  1  0
 14 15  1  0
 14 16  1  0
 14 17  1  0
 13  9  2  0
M  END
>  <inchikey>  (1579) 
FLRLGSRGQYWVEH-UHFFFAOYSA-N

>  <tags>  (1579) 
fragmenstein_placed,CpKRS_FrAncestor_bulkdock_iter2

>  <ref_pdb>  (1579) 
x0654b

>  <energy_score>  (1579) 
-17.382657

>  <distance_score>  (1579) 
0.416332

>  <HIPPO Pose ID>  (1579) 
61098

>  <ref_mols>  (1579) 
x0504a

>  <smiles>  (1579) 
O=C(NCC(F)(F)F)c1ocnc1C(F)(F)F

>  <HIPPO Compound ID>  (1579) 
453150

>  <alias>  (1579) 
FLRLGSRGQYWVEH-UHFFFAOYSA-N-P48

>  <subsites>  (1579) 


>  <placement_batch>  (1579) 
CpKRS_FrAncestor_bulkdock_iter2

>  <name>  (1579) 
FLRLGSRGQYWVEH-UHFFFAOYSA-N-P48

$$$$
UGVAHYAEAJXAHO-UHFFFAOYSA-N-P48
     RDKit          3D

 16 16  0  0  0  0  0  0  0  0999 V2000
    5.1680  -14.1823   24.7693 O   0  0  0  0  0  0  0  0  0  0  0  0
    4.1548  -13.6121   24.8096 C   0  0  0  0  0  0  0  0  0  0  0  0
    3.5842  -12.5297   23.8811 N   0  0  0  0  0  0  0  0  0  0  0  0
    4.1847  -11.8447   22.7491 C   0  0  0  0  0  0  0  0  0  0  0  0
    4.2876  -10.3255   22.8662 C   0  0  0  0  0  0  0  0  0  0  0  0
    3.0575   -9.7463   22.8866 F   0  0  0  0  0  0  0  0  0  0  0  0
    4.9495   -9.7975   21.8118 F   0  0  0  0  0  0  0  0  0  0  0  0
    4.9266   -9.9300   23.9874 F   0  0  0  0  0  0  0  0  0  0  0  0
    3.1751  -13.9246   25.8367 C   0  0  0  0  0  0  0  0  0  0  0  0
    1.9837  -13.2368   25.8988 O   0  0  0  0  0  0  0  0  0  0  0  0
    1.3277  -13.8018   26.9493 C   0  0  0  0  0  0  0  0  0  0  0  0
    1.9630  -14.7868   27.5369 N   0  0  0  0  0  0  0  0  0  0  0  0
    3.1675  -14.8647   26.8513 C   0  0  0  0  0  0  0  0  0  0  0  0
    4.2146  -15.8656   27.1863 C   0  0  0  0  0  0  0  0  0  0  0  0
    5.4619  -15.3235   27.2384 F   0  0  0  0  0  0  0  0  0  0  0  0
    4.0107  -16.4082   28.4207 F   0  0  0  0  0  0  0  0  0  0  0  0
  1  2  2  0
  2  3  1  0
  3  4  1  0
  4  5  1  0
  5  6  1  0
  5  7  1  0
  5  8  1  0
  2  9  1  0
  9 10  1  0
 10 11  1  0
 11 12  2  0
 12 13  1  0
 13 14  1  0
 14 15  1  0
 14 16  1  0
 13  9  2  0
M  END
>  <inchikey>  (1580) 
UGVAHYAEAJXAHO-UHFFFAOYSA-N

>  <tags>  (1580) 
fragmenstein_placed,CpKRS_FrAncestor_bulkdock_iter2

>  <ref_pdb>  (1580) 
x0654b

>  <energy_score>  (1580) 
-1.237914

>  <distance_score>  (1580) 
0.433259

>  <HIPPO Pose ID>  (1580) 
61101

>  <ref_mols>  (1580) 
x0504a

>  <smiles>  (1580) 
O=C(NCC(F)(F)F)c1ocnc1C(F)F

>  <HIPPO Compound ID>  (1580) 
453151

>  <alias>  (1580) 
UGVAHYAEAJXAHO-UHFFFAOYSA-N-P48

>  <subsites>  (1580) 


>  <placement_batch>  (1580) 
CpKRS_FrAncestor_bulkdock_iter2

>  <name>  (1580) 
UGVAHYAEAJXAHO-UHFFFAOYSA-N-P48

$$$$
QCEMPJDIUGKUBF-UHFFFAOYSA-N-P49
     RDKit          3D

 17 17  0  0  0  0  0  0  0  0999 V2000
    4.9752  -13.9623   24.5368 O   0  0  0  0  0  0  0  0  0  0  0  0
    4.0262  -13.3176   24.7289 C   0  0  0  0  0  0  0  0  0  0  0  0
    3.6228  -11.9472   24.1639 N   0  0  0  0  0  0  0  0  0  0  0  0
    4.2630  -11.1146   23.1604 C   0  0  0  0  0  0  0  0  0  0  0  0
    4.4687   -9.6574   23.5677 C   0  0  0  0  0  0  0  0  0  0  0  0
    3.3052   -8.9603   23.4933 F   0  0  0  0  0  0  0  0  0  0  0  0
    5.3473   -9.0385   22.7482 F   0  0  0  0  0  0  0  0  0  0  0  0
    4.9353   -9.5447   24.8302 F   0  0  0  0  0  0  0  0  0  0  0  0
    3.0372  -13.8069   25.6945 C   0  0  0  0  0  0  0  0  0  0  0  0
    1.4815  -13.1238   25.8939 S   0  0  0  0  0  0  0  0  0  0  0  0
    0.9662  -14.1620   27.0752 N   0  0  0  0  0  0  0  0  0  0  0  0
    1.9494  -15.0180   27.3254 C   0  0  0  0  0  0  0  0  0  0  0  0
    3.1590  -14.8718   26.5797 C   0  0  0  0  0  0  0  0  0  0  0  0
    4.3308  -15.7550   26.7685 C   0  0  0  0  0  0  0  0  0  0  0  0
    4.2058  -16.4498   27.9340 F   0  0  0  0  0  0  0  0  0  0  0  0
    5.5137  -15.1029   26.8599 F   0  0  0  0  0  0  0  0  0  0  0  0
    4.4491  -16.6772   25.7815 F   0  0  0  0  0  0  0  0  0  0  0  0
  1  2  2  0
  2  3  1  0
  3  4  1  0
  4  5  1  0
  5  6  1  0
  5  7  1  0
  5  8  1  0
  2  9  1  0
  9 10  1  0
 10 11  1  0
 11 12  2  0
 12 13  1  0
 13 14  1  0
 14 15  1  0
 14 16  1  0
 14 17  1  0
 13  9  2  0
M  END
>  <inchikey>  (1581) 
QCEMPJDIUGKUBF-UHFFFAOYSA-N

>  <tags>  (1581) 
fragmenstein_placed,CpKRS_FrAncestor_bulkdock_iter2

>  <ref_pdb>  (1581) 
x0654b

>  <energy_score>  (1581) 
-3.285695

>  <distance_score>  (1581) 
0.340726

>  <HIPPO Pose ID>  (1581) 
61108

>  <ref_mols>  (1581) 
x0504b

>  <smiles>  (1581) 
O=C(NCC(F)(F)F)c1sncc1C(F)(F)F

>  <HIPPO Compound ID>  (1581) 
453152

>  <alias>  (1581) 
QCEMPJDIUGKUBF-UHFFFAOYSA-N-P49

>  <subsites>  (1581) 


>  <placement_batch>  (1581) 
CpKRS_FrAncestor_bulkdock_iter2

>  <name>  (1581) 
QCEMPJDIUGKUBF-UHFFFAOYSA-N-P49

$$$$
RBVPFGCBBUIEKY-UHFFFAOYSA-N-P49
     RDKit          3D

 15 15  0  0  0  0  0  0  0  0999 V2000
    5.0261  -13.8794   24.4596 O   0  0  0  0  0  0  0  0  0  0  0  0
    4.0598  -13.2602   24.6487 C   0  0  0  0  0  0  0  0  0  0  0  0
    3.5732  -11.9513   24.0039 N   0  0  0  0  0  0  0  0  0  0  0  0
    4.2240  -11.0707   23.0499 C   0  0  0  0  0  0  0  0  0  0  0  0
    4.4437   -9.6401   23.5375 C   0  0  0  0  0  0  0  0  0  0  0  0
    5.3380   -8.9900   22.7599 F   0  0  0  0  0  0  0  0  0  0  0  0
    4.8958   -9.5958   24.8091 F   0  0  0  0  0  0  0  0  0  0  0  0
    3.2882   -8.9265   23.4833 F   0  0  0  0  0  0  0  0  0  0  0  0
    3.1083  -13.7361   25.6615 C   0  0  0  0  0  0  0  0  0  0  0  0
    1.5488  -13.0650   25.8856 S   0  0  0  0  0  0  0  0  0  0  0  0
    1.1086  -14.0032   27.1731 N   0  0  0  0  0  0  0  0  0  0  0  0
    2.1217  -14.8189   27.4495 C   0  0  0  0  0  0  0  0  0  0  0  0
    1.9607  -15.8479   28.8040 Cl  0  0  0  0  0  0  0  0  0  0  0  0
    3.2637  -14.7508   26.5952 C   0  0  0  0  0  0  0  0  0  0  0  0
    4.6276  -15.7707   26.7692 Cl  0  0  0  0  0  0  0  0  0  0  0  0
  1  2  2  0
  2  3  1  0
  3  4  1  0
  4  5  1  0
  5  6  1  0
  5  7  1  0
  5  8  1  0
  2  9  1  0
  9 10  1  0
 10 11  1  0
 11 12  2  0
 12 13  1  0
 12 14  1  0
 14 15  1  0
 14  9  2  0
M  END
>  <inchikey>  (1582) 
RBVPFGCBBUIEKY-UHFFFAOYSA-N

>  <tags>  (1582) 
fragmenstein_placed,CpKRS_FrAncestor_bulkdock_iter2

>  <ref_pdb>  (1582) 
x0654b

>  <energy_score>  (1582) 
-8.550079

>  <distance_score>  (1582) 
0.334066

>  <HIPPO Pose ID>  (1582) 
61111

>  <ref_mols>  (1582) 
x0504b

>  <smiles>  (1582) 
O=C(NCC(F)(F)F)c1snc(Cl)c1Cl

>  <HIPPO Compound ID>  (1582) 
393227

>  <alias>  (1582) 
RBVPFGCBBUIEKY-UHFFFAOYSA-N-P49

>  <subsites>  (1582) 


>  <placement_batch>  (1582) 
CpKRS_FrAncestor_bulkdock_iter2

>  <name>  (1582) 
RBVPFGCBBUIEKY-UHFFFAOYSA-N-P49

$$$$
IPENWKDFQGPYQR-UHFFFAOYSA-N-P48
     RDKit          3D

 13 13  0  0  0  0  0  0  0  0999 V2000
    5.1202  -13.7957   25.2193 O   0  0  0  0  0  0  0  0  0  0  0  0
    4.0425  -13.3783   25.0876 C   0  0  0  0  0  0  0  0  0  0  0  0
    3.4696  -12.4105   24.0387 N   0  0  0  0  0  0  0  0  0  0  0  0
    4.0865  -11.8202   22.8619 C   0  0  0  0  0  0  0  0  0  0  0  0
    4.2388  -10.3004   22.8847 C   0  0  0  0  0  0  0  0  0  0  0  0
    4.8928   -9.8550   23.9780 F   0  0  0  0  0  0  0  0  0  0  0  0
    4.9109   -9.8578   21.7981 F   0  0  0  0  0  0  0  0  0  0  0  0
    3.0254   -9.6840   22.8723 F   0  0  0  0  0  0  0  0  0  0  0  0
    3.0434  -13.8067   26.0001 N   0  0  0  0  0  0  0  0  0  0  0  0
    1.7324  -13.4018   26.1886 C   0  0  0  0  0  0  0  0  0  0  0  0
    1.2312  -14.1815   27.2069 C   0  0  0  0  0  0  0  0  0  0  0  0
    2.1728  -15.0551   27.6591 N   0  0  0  0  0  0  0  0  0  0  0  0
    3.2423  -14.8054   26.9375 C   0  0  0  0  0  0  0  0  0  0  0  0
  1  2  2  0
  2  3  1  0
  3  4  1  0
  4  5  1  0
  5  6  1  0
  5  7  1  0
  5  8  1  0
  2  9  1  0
  9 10  1  0
 10 11  2  0
 11 12  1  0
 12 13  2  0
 13  9  1  0
M  END
>  <inchikey>  (1583) 
IPENWKDFQGPYQR-UHFFFAOYSA-N

>  <tags>  (1583) 
fragmenstein_placed,CpKRS_FrAncestor_bulkdock_iter2

>  <ref_pdb>  (1583) 
x0654b

>  <energy_score>  (1583) 
-1.726111

>  <distance_score>  (1583) 
0.319548

>  <HIPPO Pose ID>  (1583) 
61116

>  <ref_mols>  (1583) 
x0504a

>  <smiles>  (1583) 
O=C(NCC(F)(F)F)n1ccnc1

>  <HIPPO Compound ID>  (1583) 
213890

>  <alias>  (1583) 
IPENWKDFQGPYQR-UHFFFAOYSA-N-P48

>  <subsites>  (1583) 


>  <placement_batch>  (1583) 
CpKRS_FrAncestor_bulkdock_iter2

>  <name>  (1583) 
IPENWKDFQGPYQR-UHFFFAOYSA-N-P48

$$$$
XVHDSFNTUIDFTP-HTQZYQBOSA-N-P45
     RDKit          3D

 15 16  0  0  0  0  0  0  0  0999 V2000
    5.4641  -13.6125   25.2264 O   0  0  0  0  0  0  0  0  0  0  0  0
    4.3574  -13.3416   24.9830 C   0  0  0  0  0  0  0  0  0  0  0  0
    3.7628  -12.5228   23.8228 N   0  0  0  0  0  0  0  0  0  0  0  0
    4.4096  -11.7871   22.7727 C   0  0  0  0  0  0  0  0  0  0  0  0
    4.2619  -10.2852   22.9654 C   0  0  1  0  0  0  0  0  0  0  0  0
    4.9662   -9.7511   24.2171 C   0  0  0  0  0  0  0  0  0  0  0  0
    5.4547   -8.3446   23.8671 C   0  0  0  0  0  0  0  0  0  0  0  0
    4.9984   -8.0930   22.4359 C   0  0  0  0  0  0  0  0  0  0  0  0
    4.8964   -9.4803   21.8430 C   0  0  1  0  0  0  0  0  0  0  0  0
    6.1515   -9.9291   21.6096 F   0  0  0  0  0  0  0  0  0  0  0  0
    3.2947  -13.8028   25.8780 C   0  0  0  0  0  0  0  0  0  0  0  0
    3.3490  -14.8119   26.8217 C   0  0  0  0  0  0  0  0  0  0  0  0
    2.1187  -14.9012   27.5271 C   0  0  0  0  0  0  0  0  0  0  0  0
    1.1591  -14.0369   27.1959 N   0  0  0  0  0  0  0  0  0  0  0  0
    1.7472  -13.0817   25.9711 S   0  0  0  0  0  0  0  0  0  0  0  0
  1  2  2  0
  2  3  1  0
  3  4  1  0
  5  4  1  6
  5  6  1  0
  6  7  1  0
  7  8  1  0
  8  9  1  0
  9 10  1  1
  2 11  1  0
 11 12  2  0
 12 13  1  0
 13 14  2  0
 14 15  1  0
  9  5  1  0
 15 11  1  0
M  END
>  <inchikey>  (1584) 
XVHDSFNTUIDFTP-UHFFFAOYSA-N

>  <tags>  (1584) 
fragmenstein_placed,CpKRS_FrAncestor_bulkdock_iter2

>  <ref_pdb>  (1584) 
x0654b

>  <energy_score>  (1584) 
-20.22512

>  <distance_score>  (1584) 
0.361965

>  <HIPPO Pose ID>  (1584) 
61119

>  <ref_mols>  (1584) 
x0502a

>  <smiles>  (1584) 
O=C(NC[C@H]1CCC[C@H]1F)c1ccns1

>  <HIPPO Compound ID>  (1584) 
453153

>  <alias>  (1584) 
XVHDSFNTUIDFTP-HTQZYQBOSA-N-P45

>  <subsites>  (1584) 


>  <placement_batch>  (1584) 
CpKRS_FrAncestor_bulkdock_iter2

>  <name>  (1584) 
XVHDSFNTUIDFTP-HTQZYQBOSA-N-P45

$$$$
ORWQHTNEJVHCGQ-HTQZYQBOSA-N-P45
     RDKit          3D

 15 16  0  0  0  0  0  0  0  0999 V2000
    5.5677  -13.7630   25.1741 O   0  0  0  0  0  0  0  0  0  0  0  0
    4.4521  -13.4409   25.0798 C   0  0  0  0  0  0  0  0  0  0  0  0
    3.7704  -12.4844   24.0840 N   0  0  0  0  0  0  0  0  0  0  0  0
    4.3002  -11.7970   22.9368 C   0  0  0  0  0  0  0  0  0  0  0  0
    4.2156  -10.2831   23.0795 C   0  0  1  0  0  0  0  0  0  0  0  0
    5.0134   -9.7278   24.2632 C   0  0  0  0  0  0  0  0  0  0  0  0
    5.5055   -8.3426   23.8417 C   0  0  0  0  0  0  0  0  0  0  0  0
    4.9989   -8.1369   22.4206 C   0  0  0  0  0  0  0  0  0  0  0  0
    4.8148   -9.5429   21.8937 C   0  0  1  0  0  0  0  0  0  0  0  0
    6.0376  -10.0480   21.6080 F   0  0  0  0  0  0  0  0  0  0  0  0
    3.4587  -13.9373   26.0148 C   0  0  0  0  0  0  0  0  0  0  0  0
    3.5125  -14.9242   26.9760 C   0  0  0  0  0  0  0  0  0  0  0  0
    2.3394  -14.9631   27.6902 N   0  0  0  0  0  0  0  0  0  0  0  0
    1.6217  -14.0238   27.1255 C   0  0  0  0  0  0  0  0  0  0  0  0
    2.2060  -13.3667   26.0886 O   0  0  0  0  0  0  0  0  0  0  0  0
  1  2  2  0
  2  3  1  0
  3  4  1  0
  5  4  1  6
  5  6  1  0
  6  7  1  0
  7  8  1  0
  8  9  1  0
  9 10  1  1
  2 11  1  0
 11 12  2  0
 12 13  1  0
 13 14  2  0
 14 15  1  0
  9  5  1  0
 15 11  1  0
M  END
>  <inchikey>  (1585) 
ORWQHTNEJVHCGQ-UHFFFAOYSA-N

>  <tags>  (1585) 
fragmenstein_placed,CpKRS_FrAncestor_bulkdock_iter2

>  <ref_pdb>  (1585) 
x0654b

>  <energy_score>  (1585) 
-10.675612

>  <distance_score>  (1585) 
0.346096

>  <HIPPO Pose ID>  (1585) 
61122

>  <ref_mols>  (1585) 
x0502a

>  <smiles>  (1585) 
O=C(NC[C@H]1CCC[C@H]1F)c1cnco1

>  <HIPPO Compound ID>  (1585) 
453154

>  <alias>  (1585) 
ORWQHTNEJVHCGQ-HTQZYQBOSA-N-P45

>  <subsites>  (1585) 


>  <placement_batch>  (1585) 
CpKRS_FrAncestor_bulkdock_iter2

>  <name>  (1585) 
ORWQHTNEJVHCGQ-HTQZYQBOSA-N-P45

$$$$
YWYBMTJAKNJZRH-HTRCEHHLSA-N-P44
     RDKit          3D

 16 17  0  0  0  0  0  0  0  0999 V2000
  -11.5329  -12.0142   45.6493 O   0  0  0  0  0  0  0  0  0  0  0  0
  -11.0534  -12.8920   46.2460 C   0  0  0  0  0  0  0  0  0  0  0  0
  -11.5094  -14.3508   46.4107 N   0  0  0  0  0  0  0  0  0  0  0  0
  -12.6047  -15.0672   45.7976 C   0  0  0  0  0  0  0  0  0  0  0  0
  -12.4202  -15.2390   44.2846 C   0  0  1  0  0  0  0  0  0  0  0  0
  -11.4612  -16.3866   43.9476 C   0  0  0  0  0  0  0  0  0  0  0  0
  -12.3270  -17.6304   43.7209 C   0  0  0  0  0  0  0  0  0  0  0  0
  -13.7737  -17.1721   43.8291 C   0  0  0  0  0  0  0  0  0  0  0  0
  -13.7011  -15.6792   43.5816 C   0  0  1  0  0  0  0  0  0  0  0  0
  -14.7906  -15.0529   44.0720 F   0  0  0  0  0  0  0  0  0  0  0  0
   -9.8548  -12.5824   47.0500 C   0  0  0  0  0  0  0  0  0  0  0  0
   -9.1057  -11.4425   46.7715 C   0  0  0  0  0  0  0  0  0  0  0  0
   -7.8490  -11.2751   47.9065 S   0  0  0  0  0  0  0  0  0  0  0  0
   -8.2155  -12.6365   48.7620 N   0  0  0  0  0  0  0  0  0  0  0  0
   -9.2720  -13.2201   48.1978 C   0  0  0  0  0  0  0  0  0  0  0  0
   -9.8465  -14.6367   48.9634 Cl  0  0  0  0  0  0  0  0  0  0  0  0
  1  2  2  0
  2  3  1  0
  3  4  1  0
  5  4  1  1
  5  6  1  0
  6  7  1  0
  7  8  1  0
  8  9  1  0
  9 10  1  1
  2 11  1  0
 11 12  2  0
 12 13  1  0
 13 14  1  0
 14 15  2  0
 15 16  1  0
  9  5  1  0
 15 11  1  0
M  END
>  <inchikey>  (1586) 
YWYBMTJAKNJZRH-UHFFFAOYSA-N

>  <tags>  (1586) 
fragmenstein_placed,CpKRS_FrAncestor_bulkdock_iter2

>  <ref_pdb>  (1586) 
x0654b

>  <energy_score>  (1586) 
-44.725077

>  <distance_score>  (1586) 
0.324889

>  <HIPPO Pose ID>  (1586) 
61126

>  <ref_mols>  (1586) 
x0502b

>  <smiles>  (1586) 
O=C(NC[C@H]1CCC[C@H]1F)c1csnc1Cl

>  <HIPPO Compound ID>  (1586) 
453155

>  <alias>  (1586) 
YWYBMTJAKNJZRH-HTRCEHHLSA-N-P44

>  <subsites>  (1586) 


>  <placement_batch>  (1586) 
CpKRS_FrAncestor_bulkdock_iter2

>  <name>  (1586) 
YWYBMTJAKNJZRH-HTRCEHHLSA-N-P44

$$$$
OXRWOOCXGUDROB-RNFRBKRXSA-N-P44
     RDKit          3D

 16 17  0  0  0  0  0  0  0  0999 V2000
  -11.0946  -12.0418   45.2721 O   0  0  0  0  0  0  0  0  0  0  0  0
  -10.7954  -12.8740   46.0321 C   0  0  0  0  0  0  0  0  0  0  0  0
  -11.3937  -14.2766   46.2650 N   0  0  0  0  0  0  0  0  0  0  0  0
  -12.5484  -14.9142   45.6750 C   0  0  0  0  0  0  0  0  0  0  0  0
  -12.3591  -15.2074   44.1818 C   0  0  1  0  0  0  0  0  0  0  0  0
  -11.4465  -16.4165   43.9377 C   0  0  0  0  0  0  0  0  0  0  0  0
  -12.3608  -17.6266   43.7209 C   0  0  0  0  0  0  0  0  0  0  0  0
  -13.7861  -17.1083   43.8276 C   0  0  0  0  0  0  0  0  0  0  0  0
  -13.6561  -15.6346   43.5005 C   0  0  1  0  0  0  0  0  0  0  0  0
  -14.7203  -14.9412   43.9552 F   0  0  0  0  0  0  0  0  0  0  0  0
   -9.7052  -12.6016   46.9679 C   0  0  0  0  0  0  0  0  0  0  0  0
   -8.9343  -11.4777   46.7237 O   0  0  0  0  0  0  0  0  0  0  0  0
   -8.0432  -11.4418   47.7439 C   0  0  0  0  0  0  0  0  0  0  0  0
   -8.1614  -12.4033   48.6249 N   0  0  0  0  0  0  0  0  0  0  0  0
   -9.2050  -13.1520   48.1337 C   0  0  0  0  0  0  0  0  0  0  0  0
   -9.8091  -14.6710   49.0721 Br  0  0  0  0  0  0  0  0  0  0  0  0
  1  2  2  0
  2  3  1  0
  3  4  1  0
  5  4  1  1
  5  6  1  0
  6  7  1  0
  7  8  1  0
  8  9  1  0
  9 10  1  1
  2 11  1  0
 11 12  1  0
 12 13  1  0
 13 14  2  0
 14 15  1  0
 15 16  1  0
  9  5  1  0
 15 11  2  0
M  END
>  <inchikey>  (1587) 
OXRWOOCXGUDROB-UHFFFAOYSA-N

>  <tags>  (1587) 
fragmenstein_placed,CpKRS_FrAncestor_bulkdock_iter2

>  <ref_pdb>  (1587) 
x0654b

>  <energy_score>  (1587) 
-1.660738

>  <distance_score>  (1587) 
0.427865

>  <HIPPO Pose ID>  (1587) 
61129

>  <ref_mols>  (1587) 
x0502b

>  <smiles>  (1587) 
O=C(NC[C@H]1CCC[C@H]1F)c1ocnc1Br

>  <HIPPO Compound ID>  (1587) 
453156

>  <alias>  (1587) 
OXRWOOCXGUDROB-RNFRBKRXSA-N-P44

>  <subsites>  (1587) 


>  <placement_batch>  (1587) 
CpKRS_FrAncestor_bulkdock_iter2

>  <name>  (1587) 
OXRWOOCXGUDROB-RNFRBKRXSA-N-P44

$$$$
WSESXNFUZRVKQE-HTRCEHHLSA-N-P44
     RDKit          3D

 16 17  0  0  0  0  0  0  0  0999 V2000
  -11.1249  -12.0339   45.2537 O   0  0  0  0  0  0  0  0  0  0  0  0
  -10.8332  -12.8658   46.0169 C   0  0  0  0  0  0  0  0  0  0  0  0
  -11.4430  -14.2640   46.2535 N   0  0  0  0  0  0  0  0  0  0  0  0
  -12.6015  -14.8944   45.6639 C   0  0  0  0  0  0  0  0  0  0  0  0
  -12.4078  -15.1904   44.1718 C   0  0  1  0  0  0  0  0  0  0  0  0
  -11.4669  -16.3793   43.9312 C   0  0  0  0  0  0  0  0  0  0  0  0
  -12.3527  -17.6091   43.7081 C   0  0  0  0  0  0  0  0  0  0  0  0
  -13.7894  -17.1250   43.8206 C   0  0  0  0  0  0  0  0  0  0  0  0
  -13.6961  -15.6481   43.4949 C   0  0  1  0  0  0  0  0  0  0  0  0
  -14.7752  -14.9821   43.9559 F   0  0  0  0  0  0  0  0  0  0  0  0
   -9.7475  -12.6068   46.9613 C   0  0  0  0  0  0  0  0  0  0  0  0
   -9.0007  -11.4748   46.7285 O   0  0  0  0  0  0  0  0  0  0  0  0
   -8.0200  -11.3357   47.7000 N   0  0  0  0  0  0  0  0  0  0  0  0
   -8.1773  -12.3849   48.5070 C   0  0  0  0  0  0  0  0  0  0  0  0
   -9.2464  -13.1938   48.1000 C   0  0  0  0  0  0  0  0  0  0  0  0
   -9.7847  -14.7152   49.0434 Br  0  0  0  0  0  0  0  0  0  0  0  0
  1  2  2  0
  2  3  1  0
  3  4  1  0
  5  4  1  1
  5  6  1  0
  6  7  1  0
  7  8  1  0
  8  9  1  0
  9 10  1  1
  2 11  1  0
 11 12  1  0
 12 13  1  0
 13 14  2  0
 14 15  1  0
 15 16  1  0
  9  5  1  0
 15 11  2  0
M  END
>  <inchikey>  (1588) 
WSESXNFUZRVKQE-UHFFFAOYSA-N

>  <tags>  (1588) 
fragmenstein_placed,CpKRS_FrAncestor_bulkdock_iter2

>  <ref_pdb>  (1588) 
x0654b

>  <energy_score>  (1588) 
-8.643764

>  <distance_score>  (1588) 
0.431218

>  <HIPPO Pose ID>  (1588) 
61132

>  <ref_mols>  (1588) 
x0502b

>  <smiles>  (1588) 
O=C(NC[C@H]1CCC[C@H]1F)c1oncc1Br

>  <HIPPO Compound ID>  (1588) 
453157

>  <alias>  (1588) 
WSESXNFUZRVKQE-HTRCEHHLSA-N-P44

>  <subsites>  (1588) 


>  <placement_batch>  (1588) 
CpKRS_FrAncestor_bulkdock_iter2

>  <name>  (1588) 
WSESXNFUZRVKQE-HTRCEHHLSA-N-P44

$$$$
DNQQJCKGFKVGJL-YUMQZZPRSA-N-P44
     RDKit          3D

 18 19  0  0  0  0  0  0  0  0999 V2000
  -11.4536  -11.9229   45.5099 O   0  0  0  0  0  0  0  0  0  0  0  0
  -11.0280  -12.8101   46.1360 C   0  0  0  0  0  0  0  0  0  0  0  0
  -11.5502  -14.2535   46.3096 N   0  0  0  0  0  0  0  0  0  0  0  0
  -12.6518  -14.9337   45.6743 C   0  0  0  0  0  0  0  0  0  0  0  0
  -12.3967  -15.2136   44.1862 C   0  0  1  0  0  0  0  0  0  0  0  0
  -11.4389  -16.3925   43.9759 C   0  0  0  0  0  0  0  0  0  0  0  0
  -12.2911  -17.6053   43.6006 C   0  0  0  0  0  0  0  0  0  0  0  0
  -13.7444  -17.1539   43.7036 C   0  0  2  0  0  0  0  0  0  0  0  0
  -14.6631  -17.8805   42.7435 C   0  0  0  0  0  0  0  0  0  0  0  0
  -14.6528  -19.2113   42.9801 F   0  0  0  0  0  0  0  0  0  0  0  0
  -14.2990  -17.6895   41.4576 F   0  0  0  0  0  0  0  0  0  0  0  0
  -15.9365  -17.4509   42.8793 F   0  0  0  0  0  0  0  0  0  0  0  0
  -13.6701  -15.6505   43.4544 C   0  0  0  0  0  0  0  0  0  0  0  0
   -9.8640  -12.5833   46.9894 C   0  0  0  0  0  0  0  0  0  0  0  0
   -9.2843  -13.2439   48.0554 C   0  0  0  0  0  0  0  0  0  0  0  0
   -8.2191  -12.5294   48.5500 N   0  0  0  0  0  0  0  0  0  0  0  0
   -8.1666  -11.4842   47.7595 C   0  0  0  0  0  0  0  0  0  0  0  0
   -9.1259  -11.4334   46.8005 O   0  0  0  0  0  0  0  0  0  0  0  0
  1  2  2  0
  2  3  1  0
  3  4  1  0
  5  4  1  1
  5  6  1  0
  6  7  1  0
  7  8  1  0
  8  9  1  6
  9 10  1  0
  9 11  1  0
  9 12  1  0
  8 13  1  0
  2 14  1  0
 14 15  2  0
 15 16  1  0
 16 17  2  0
 17 18  1  0
 13  5  1  0
 18 14  1  0
M  END
>  <inchikey>  (1589) 
DNQQJCKGFKVGJL-UHFFFAOYSA-N

>  <tags>  (1589) 
fragmenstein_placed,CpKRS_FrAncestor_bulkdock_iter2

>  <ref_pdb>  (1589) 
x0654b

>  <energy_score>  (1589) 
-0.071213

>  <distance_score>  (1589) 
0.393593

>  <HIPPO Pose ID>  (1589) 
61135

>  <ref_mols>  (1589) 
x0502b

>  <smiles>  (1589) 
O=C(NC[C@H]1CC[C@H](C(F)(F)F)C1)c1cnco1

>  <HIPPO Compound ID>  (1589) 
339850

>  <alias>  (1589) 
DNQQJCKGFKVGJL-YUMQZZPRSA-N-P44

>  <subsites>  (1589) 


>  <placement_batch>  (1589) 
CpKRS_FrAncestor_bulkdock_iter2

>  <name>  (1589) 
DNQQJCKGFKVGJL-YUMQZZPRSA-N-P44

$$$$
GGNMRRVZSUVRCS-SSDOTTSWSA-N-P44
     RDKit          3D

 15 16  0  0  0  0  0  0  0  0999 V2000
  -11.7617  -12.1177   45.9456 O   0  0  0  0  0  0  0  0  0  0  0  0
  -11.1220  -12.9810   46.3945 C   0  0  0  0  0  0  0  0  0  0  0  0
  -11.3708  -14.4971   46.4166 N   0  0  0  0  0  0  0  0  0  0  0  0
  -12.4160  -15.2854   45.8065 C   0  0  0  0  0  0  0  0  0  0  0  0
  -12.2988  -15.3166   44.2772 C   0  0  1  0  0  0  0  0  0  0  0  0
  -11.4590  -16.4808   43.7898 C   0  0  0  0  0  0  0  0  0  0  0  0
  -12.4453  -17.6291   43.7074 C   0  0  0  0  0  0  0  0  0  0  0  0
  -13.7554  -17.0617   43.6053 O   0  0  0  0  0  0  0  0  0  0  0  0
  -13.6332  -15.6353   43.6222 C   0  0  0  0  0  0  0  0  0  0  0  0
   -9.8756  -12.6191   47.0802 C   0  0  0  0  0  0  0  0  0  0  0  0
   -9.0874  -11.4606   46.7715 C   0  0  0  0  0  0  0  0  0  0  0  0
   -8.0447  -11.4338   47.6611 C   0  0  0  0  0  0  0  0  0  0  0  0
   -8.1325  -12.4809   48.5126 O   0  0  0  0  0  0  0  0  0  0  0  0
   -9.2417  -13.1977   48.1684 C   0  0  0  0  0  0  0  0  0  0  0  0
   -9.7789  -14.7244   49.1796 Br  0  0  0  0  0  0  0  0  0  0  0  0
  1  2  2  0
  2  3  1  0
  3  4  1  0
  5  4  1  1
  5  6  1  0
  6  7  1  0
  7  8  1  0
  8  9  1  0
  2 10  1  0
 10 11  1  0
 11 12  2  0
 12 13  1  0
 13 14  1  0
 14 15  1  0
  9  5  1  0
 14 10  2  0
M  END
>  <inchikey>  (1590) 
GGNMRRVZSUVRCS-UHFFFAOYSA-N

>  <tags>  (1590) 
fragmenstein_placed,CpKRS_FrAncestor_bulkdock_iter2

>  <ref_pdb>  (1590) 
x0654b

>  <energy_score>  (1590) 
-6.988104

>  <distance_score>  (1590) 
0.274081

>  <HIPPO Pose ID>  (1590) 
61141

>  <ref_mols>  (1590) 
x0502b

>  <smiles>  (1590) 
O=C(NC[C@H]1CCOC1)c1ccoc1Br

>  <HIPPO Compound ID>  (1590) 
453063

>  <alias>  (1590) 
GGNMRRVZSUVRCS-SSDOTTSWSA-N-P44

>  <subsites>  (1590) 


>  <placement_batch>  (1590) 
CpKRS_FrAncestor_bulkdock_iter2

>  <name>  (1590) 
GGNMRRVZSUVRCS-SSDOTTSWSA-N-P44

$$$$
WKIQLOFMPKCGCW-ZETCQYMHSA-N-P44
     RDKit          3D

 15 16  0  0  0  0  0  0  0  0999 V2000
  -11.5278  -12.2510   45.6216 O   0  0  0  0  0  0  0  0  0  0  0  0
  -10.9581  -13.0822   46.2059 C   0  0  0  0  0  0  0  0  0  0  0  0
  -11.2284  -14.5926   46.3075 N   0  0  0  0  0  0  0  0  0  0  0  0
  -12.3146  -15.3876   45.7874 C   0  0  0  0  0  0  0  0  0  0  0  0
  -12.3304  -15.4231   44.2528 C   0  0  2  0  0  0  0  0  0  0  0  0
  -13.6866  -15.8317   43.7084 C   0  0  0  0  0  0  0  0  0  0  0  0
  -13.6480  -17.3422   43.7921 C   0  0  0  0  0  0  0  0  0  0  0  0
  -12.2747  -17.7271   43.6660 O   0  0  0  0  0  0  0  0  0  0  0  0
  -11.4611  -16.5458   43.7122 C   0  0  0  0  0  0  0  0  0  0  0  0
   -9.7950  -12.6723   47.0039 C   0  0  0  0  0  0  0  0  0  0  0  0
   -9.0170  -11.4916   46.7601 C   0  0  0  0  0  0  0  0  0  0  0  0
   -8.0579  -11.4336   47.7377 C   0  0  0  0  0  0  0  0  0  0  0  0
   -8.1927  -12.4801   48.5840 O   0  0  0  0  0  0  0  0  0  0  0  0
   -9.2460  -13.2327   48.1476 C   0  0  0  0  0  0  0  0  0  0  0  0
   -9.7520  -14.6284   49.0247 Cl  0  0  0  0  0  0  0  0  0  0  0  0
  1  2  2  0
  2  3  1  0
  3  4  1  0
  5  4  1  1
  5  6  1  0
  6  7  1  0
  7  8  1  0
  8  9  1  0
  2 10  1  0
 10 11  1  0
 11 12  2  0
 12 13  1  0
 13 14  1  0
 14 15  1  0
  9  5  1  0
 14 10  2  0
M  END
>  <inchikey>  (1591) 
WKIQLOFMPKCGCW-UHFFFAOYSA-N

>  <tags>  (1591) 
fragmenstein_placed,CpKRS_FrAncestor_bulkdock_iter2

>  <ref_pdb>  (1591) 
x0654b

>  <energy_score>  (1591) 
-13.671346

>  <distance_score>  (1591) 
0.287014

>  <HIPPO Pose ID>  (1591) 
61144

>  <ref_mols>  (1591) 
x0502b

>  <smiles>  (1591) 
O=C(NC[C@@H]1CCOC1)c1ccoc1Cl

>  <HIPPO Compound ID>  (1591) 
453064

>  <alias>  (1591) 
WKIQLOFMPKCGCW-ZETCQYMHSA-N-P44

>  <subsites>  (1591) 


>  <placement_batch>  (1591) 
CpKRS_FrAncestor_bulkdock_iter2

>  <name>  (1591) 
WKIQLOFMPKCGCW-ZETCQYMHSA-N-P44

$$$$
WSDVOZWGAZKIIW-SSDOTTSWSA-N-P44
     RDKit          3D

 15 16  0  0  0  0  0  0  0  0999 V2000
  -11.8775  -12.2160   46.1087 O   0  0  0  0  0  0  0  0  0  0  0  0
  -11.1711  -13.0580   46.4930 C   0  0  0  0  0  0  0  0  0  0  0  0
  -11.3224  -14.5854   46.4405 N   0  0  0  0  0  0  0  0  0  0  0  0
  -12.3334  -15.4071   45.8178 C   0  0  0  0  0  0  0  0  0  0  0  0
  -12.2513  -15.3625   44.2864 C   0  0  1  0  0  0  0  0  0  0  0  0
  -11.4343  -16.5095   43.7248 C   0  0  0  0  0  0  0  0  0  0  0  0
  -12.4329  -17.6455   43.6212 C   0  0  0  0  0  0  0  0  0  0  0  0
  -13.7392  -17.0629   43.5683 O   0  0  0  0  0  0  0  0  0  0  0  0
  -13.6026  -15.6396   43.6463 C   0  0  0  0  0  0  0  0  0  0  0  0
   -9.9194  -12.6516   47.1639 C   0  0  0  0  0  0  0  0  0  0  0  0
   -9.1916  -11.4639   46.7710 C   0  0  0  0  0  0  0  0  0  0  0  0
   -8.0928  -11.2081   47.5589 C   0  0  0  0  0  0  0  0  0  0  0  0
   -7.9307  -12.3620   48.8007 S   0  0  0  0  0  0  0  0  0  0  0  0
   -9.3028  -13.2185   48.2633 C   0  0  0  0  0  0  0  0  0  0  0  0
   -9.8746  -14.7654   49.2430 Br  0  0  0  0  0  0  0  0  0  0  0  0
  1  2  2  0
  2  3  1  0
  3  4  1  0
  5  4  1  1
  5  6  1  0
  6  7  1  0
  7  8  1  0
  8  9  1  0
  2 10  1  0
 10 11  1  0
 11 12  2  0
 12 13  1  0
 13 14  1  0
 14 15  1  0
  9  5  1  0
 14 10  2  0
M  END
>  <inchikey>  (1592) 
WSDVOZWGAZKIIW-UHFFFAOYSA-N

>  <tags>  (1592) 
fragmenstein_placed,CpKRS_FrAncestor_bulkdock_iter2

>  <ref_pdb>  (1592) 
x0654b

>  <energy_score>  (1592) 
-14.717771

>  <distance_score>  (1592) 
0.311467

>  <HIPPO Pose ID>  (1592) 
61153

>  <ref_mols>  (1592) 
x0502b

>  <smiles>  (1592) 
O=C(NC[C@H]1CCOC1)c1ccsc1Br

>  <HIPPO Compound ID>  (1592) 
453065

>  <alias>  (1592) 
WSDVOZWGAZKIIW-SSDOTTSWSA-N-P44

>  <subsites>  (1592) 


>  <placement_batch>  (1592) 
CpKRS_FrAncestor_bulkdock_iter2

>  <name>  (1592) 
WSDVOZWGAZKIIW-SSDOTTSWSA-N-P44

$$$$
AUNMJOVLQCLAMT-ZETCQYMHSA-N-P44
     RDKit          3D

 15 16  0  0  0  0  0  0  0  0999 V2000
  -11.6901  -12.1921   45.7528 O   0  0  0  0  0  0  0  0  0  0  0  0
  -11.1356  -13.0451   46.3235 C   0  0  0  0  0  0  0  0  0  0  0  0
  -11.4812  -14.5434   46.4641 N   0  0  0  0  0  0  0  0  0  0  0  0
  -12.5291  -15.3245   45.8538 C   0  0  0  0  0  0  0  0  0  0  0  0
  -12.4131  -15.3761   44.3238 C   0  0  2  0  0  0  0  0  0  0  0  0
  -13.7079  -15.8238   43.6715 C   0  0  0  0  0  0  0  0  0  0  0  0
  -13.6366  -17.3324   43.7681 C   0  0  0  0  0  0  0  0  0  0  0  0
  -12.2479  -17.6815   43.7571 O   0  0  0  0  0  0  0  0  0  0  0  0
  -11.4729  -16.4792   43.8703 C   0  0  0  0  0  0  0  0  0  0  0  0
   -9.9408  -12.7235   47.1190 C   0  0  0  0  0  0  0  0  0  0  0  0
   -9.0732  -11.2692   46.7806 S   0  0  0  0  0  0  0  0  0  0  0  0
   -7.9449  -11.5577   48.0341 C   0  0  0  0  0  0  0  0  0  0  0  0
   -8.2109  -12.7275   48.7074 C   0  0  0  0  0  0  0  0  0  0  0  0
   -9.3461  -13.3809   48.1724 C   0  0  0  0  0  0  0  0  0  0  0  0
   -9.7973  -14.5392   48.6785 F   0  0  0  0  0  0  0  0  0  0  0  0
  1  2  2  0
  2  3  1  0
  3  4  1  0
  5  4  1  1
  5  6  1  0
  6  7  1  0
  7  8  1  0
  8  9  1  0
  2 10  1  0
 10 11  1  0
 11 12  1  0
 12 13  2  0
 13 14  1  0
 14 15  1  0
  9  5  1  0
 14 10  2  0
M  END
>  <inchikey>  (1593) 
AUNMJOVLQCLAMT-UHFFFAOYSA-N

>  <tags>  (1593) 
fragmenstein_placed,CpKRS_FrAncestor_bulkdock_iter2

>  <ref_pdb>  (1593) 
x0654b

>  <energy_score>  (1593) 
-26.771716

>  <distance_score>  (1593) 
0.268119

>  <HIPPO Pose ID>  (1593) 
61168

>  <ref_mols>  (1593) 
x0502b

>  <smiles>  (1593) 
O=C(NC[C@@H]1CCOC1)c1sccc1F

>  <HIPPO Compound ID>  (1593) 
453068

>  <alias>  (1593) 
AUNMJOVLQCLAMT-ZETCQYMHSA-N-P44

>  <subsites>  (1593) 


>  <placement_batch>  (1593) 
CpKRS_FrAncestor_bulkdock_iter2

>  <name>  (1593) 
AUNMJOVLQCLAMT-ZETCQYMHSA-N-P44

$$$$
IPYYLDSLJLXPSX-UHFFFAOYSA-N-P46
     RDKit          3D

 15 16  0  0  0  0  0  0  0  0999 V2000
    5.5269  -12.2355   22.2566 O   0  0  0  0  0  0  0  0  0  0  0  0
    4.8549  -11.6716   23.0207 C   0  0  0  0  0  0  0  0  0  0  0  0
    4.1937  -12.1639   24.3243 N   0  0  0  0  0  0  0  0  0  0  0  0
    4.2996  -13.4197   25.0039 C   0  0  0  0  0  0  0  0  0  0  0  0
    3.1068  -13.6500   25.8630 C   0  0  0  0  0  0  0  0  0  0  0  0
    1.6492  -12.7431   25.7225 S   0  0  0  0  0  0  0  0  0  0  0  0
    1.0379  -13.5453   27.0966 C   0  0  0  0  0  0  0  0  0  0  0  0
    1.7747  -14.5063   27.5959 N   0  0  0  0  0  0  0  0  0  0  0  0
    2.9509  -14.5744   26.8768 C   0  0  0  0  0  0  0  0  0  0  0  0
    4.2710  -15.8378   27.3391 Br  0  0  0  0  0  0  0  0  0  0  0  0
    4.4233  -10.2154   22.8647 C   0  0  0  0  0  0  0  0  0  0  0  0
    4.8675   -9.3428   24.0527 C   0  0  0  0  0  0  0  0  0  0  0  0
    5.7625   -8.2680   23.4659 C   0  0  0  0  0  0  0  0  0  0  0  0
    5.2357   -8.1160   22.0553 C   0  0  0  0  0  0  0  0  0  0  0  0
    5.0347   -9.5522   21.6288 C   0  0  0  0  0  0  0  0  0  0  0  0
  1  2  2  0
  2  3  1  0
  3  4  1  0
  4  5  1  0
  5  6  1  0
  6  7  1  0
  7  8  2  0
  8  9  1  0
  9 10  1  0
  2 11  1  0
 11 12  1  0
 12 13  1  0
 13 14  1  0
 14 15  1  0
  9  5  2  0
 15 11  1  0
M  END
>  <inchikey>  (1594) 
IPYYLDSLJLXPSX-UHFFFAOYSA-N

>  <tags>  (1594) 
fragmenstein_placed,CpKRS_FrAncestor_bulkdock_iter2

>  <ref_pdb>  (1594) 
x0654b

>  <energy_score>  (1594) 
-48.429861

>  <distance_score>  (1594) 
0.592642

>  <HIPPO Pose ID>  (1594) 
61179

>  <ref_mols>  (1594) 
x0502c

>  <smiles>  (1594) 
O=C(NCc1scnc1Br)C1CCCC1

>  <HIPPO Compound ID>  (1594) 
453158

>  <alias>  (1594) 
IPYYLDSLJLXPSX-UHFFFAOYSA-N-P46

>  <subsites>  (1594) 


>  <placement_batch>  (1594) 
CpKRS_FrAncestor_bulkdock_iter2

>  <name>  (1594) 
IPYYLDSLJLXPSX-UHFFFAOYSA-N-P46

$$$$
ZGQKPZXWGSPCTQ-UHFFFAOYSA-N-P49
     RDKit          3D

 13 13  0  0  0  0  0  0  0  0999 V2000
    4.4769  -11.2601   21.8160 O   0  0  0  0  0  0  0  0  0  0  0  0
    4.4485  -11.1119   22.9757 C   0  0  0  0  0  0  0  0  0  0  0  0
    3.8722  -12.0274   24.0956 N   0  0  0  0  0  0  0  0  0  0  0  0
    3.3031  -13.3460   24.0223 C   0  0  0  0  0  0  0  0  0  0  0  0
    2.7601  -13.7741   25.3379 C   0  0  0  0  0  0  0  0  0  0  0  0
    1.2440  -13.1937   25.9047 S   0  0  0  0  0  0  0  0  0  0  0  0
    1.1962  -14.1153   27.2892 N   0  0  0  0  0  0  0  0  0  0  0  0
    2.3223  -14.8210   27.3537 C   0  0  0  0  0  0  0  0  0  0  0  0
    3.2318  -14.6637   26.2783 C   0  0  0  0  0  0  0  0  0  0  0  0
    4.8470  -15.6243   26.2159 Br  0  0  0  0  0  0  0  0  0  0  0  0
    5.0557   -9.8705   23.6544 C   0  0  0  0  0  0  0  0  0  0  0  0
    4.7467   -9.7949   24.9817 F   0  0  0  0  0  0  0  0  0  0  0  0
    4.6197   -8.7062   23.0980 F   0  0  0  0  0  0  0  0  0  0  0  0
  1  2  2  0
  2  3  1  0
  3  4  1  0
  4  5  1  0
  5  6  1  0
  6  7  1  0
  7  8  2  0
  8  9  1  0
  9 10  1  0
  2 11  1  0
 11 12  1  0
 11 13  1  0
  9  5  2  0
M  END
>  <inchikey>  (1595) 
ZGQKPZXWGSPCTQ-UHFFFAOYSA-N

>  <tags>  (1595) 
fragmenstein_placed,CpKRS_FrAncestor_bulkdock_iter2

>  <ref_pdb>  (1595) 
x0654b

>  <energy_score>  (1595) 
-2.182607

>  <distance_score>  (1595) 
0.67427

>  <HIPPO Pose ID>  (1595) 
61181

>  <ref_mols>  (1595) 
x0504b

>  <smiles>  (1595) 
O=C(NCc1sncc1Br)C(F)F

>  <HIPPO Compound ID>  (1595) 
277119

>  <alias>  (1595) 
ZGQKPZXWGSPCTQ-UHFFFAOYSA-N-P49

>  <subsites>  (1595) 


>  <placement_batch>  (1595) 
CpKRS_FrAncestor_bulkdock_iter2

>  <name>  (1595) 
ZGQKPZXWGSPCTQ-UHFFFAOYSA-N-P49

$$$$
LLVYHCAKNLHRQJ-UHFFFAOYSA-N-P55
     RDKit          3D

 16 17  0  0  0  0  0  0  0  0999 V2000
    5.5474  -13.9580   24.8403 O   0  0  0  0  0  0  0  0  0  0  0  0
    4.3940  -13.8098   24.8956 C   0  0  0  0  0  0  0  0  0  0  0  0
    3.4505  -13.0110   23.9907 N   0  0  0  0  0  0  0  0  0  0  0  0
    3.7069  -12.3030   22.7746 C   0  0  0  0  0  0  0  0  0  0  0  0
    4.0234  -10.8889   23.1356 C   0  0  0  0  0  0  0  0  0  0  0  0
    5.4644  -10.1418   22.5678 S   0  0  0  0  0  0  0  0  0  0  0  0
    5.2535   -8.8437   23.6246 C   0  0  0  0  0  0  0  0  0  0  0  0
    6.4713   -7.6758   23.8760 Cl  0  0  0  0  0  0  0  0  0  0  0  0
    4.0421   -8.8467   24.2548 C   0  0  0  0  0  0  0  0  0  0  0  0
    3.3053  -10.0144   23.9304 C   0  0  0  0  0  0  0  0  0  0  0  0
    1.7374  -10.2817   24.5675 Cl  0  0  0  0  0  0  0  0  0  0  0  0
    3.5910  -14.3871   25.9982 C   0  0  0  0  0  0  0  0  0  0  0  0
    4.0212  -15.3533   26.9431 C   0  0  0  0  0  0  0  0  0  0  0  0
    2.9364  -15.5788   27.7518 C   0  0  0  0  0  0  0  0  0  0  0  0
    1.9480  -14.7638   27.2882 N   0  0  0  0  0  0  0  0  0  0  0  0
    2.3057  -14.0232   26.2233 N   0  0  0  0  0  0  0  0  0  0  0  0
  1  2  2  0
  2  3  1  0
  3  4  1  0
  4  5  1  0
  5  6  1  0
  6  7  1  0
  7  8  1  0
  7  9  2  0
  9 10  1  0
 10 11  1  0
  2 12  1  0
 12 13  1  0
 13 14  2  0
 14 15  1  0
 15 16  1  0
 10  5  2  0
 16 12  2  0
M  END
>  <inchikey>  (1596) 
LLVYHCAKNLHRQJ-UHFFFAOYSA-N

>  <tags>  (1596) 
fragmenstein_placed,CpKRS_FrAncestor_bulkdock_iter2

>  <ref_pdb>  (1596) 
x0654b

>  <energy_score>  (1596) 
-32.562001

>  <distance_score>  (1596) 
0.883338

>  <HIPPO Pose ID>  (1596) 
61183

>  <ref_mols>  (1596) 
x0646a

>  <smiles>  (1596) 
O=C(NCc1sc(Cl)cc1Cl)c1cc[nH]n1

>  <HIPPO Compound ID>  (1596) 
453159

>  <alias>  (1596) 
LLVYHCAKNLHRQJ-UHFFFAOYSA-N-P55

>  <subsites>  (1596) 


>  <placement_batch>  (1596) 
CpKRS_FrAncestor_bulkdock_iter2

>  <name>  (1596) 
LLVYHCAKNLHRQJ-UHFFFAOYSA-N-P55

$$$$
IPHRJUXQJCOSRZ-UHFFFAOYSA-N-P49
     RDKit          3D

 13 13  0  0  0  0  0  0  0  0999 V2000
    4.1742  -14.0024   24.0513 O   0  0  0  0  0  0  0  0  0  0  0  0
    3.4707  -13.2698   24.6172 C   0  0  0  0  0  0  0  0  0  0  0  0
    3.1286  -11.7990   24.3334 N   0  0  0  0  0  0  0  0  0  0  0  0
    3.6537  -10.8892   23.3465 C   0  0  0  0  0  0  0  0  0  0  0  0
    4.9512  -10.2404   23.7958 C   0  0  0  0  0  0  0  0  0  0  0  0
    4.6962   -9.4223   24.8552 F   0  0  0  0  0  0  0  0  0  0  0  0
    2.7315  -13.7751   25.7817 C   0  0  0  0  0  0  0  0  0  0  0  0
    3.1742  -14.8398   26.6520 C   0  0  0  0  0  0  0  0  0  0  0  0
    4.6699  -15.6616   26.5346 Cl  0  0  0  0  0  0  0  0  0  0  0  0
    2.3645  -15.2104   27.6450 N   0  0  0  0  0  0  0  0  0  0  0  0
    0.9962  -14.2963   27.5573 S   0  0  0  0  0  0  0  0  0  0  0  0
    1.4785  -13.3867   26.2136 C   0  0  0  0  0  0  0  0  0  0  0  0
    0.3864  -12.2148   25.5973 Cl  0  0  0  0  0  0  0  0  0  0  0  0
  1  2  2  0
  2  3  1  0
  3  4  1  0
  4  5  1  0
  5  6  1  0
  2  7  1  0
  7  8  1  0
  8  9  1  0
  8 10  2  0
 10 11  1  0
 11 12  1  0
 12 13  1  0
 12  7  2  0
M  END
>  <inchikey>  (1597) 
IPHRJUXQJCOSRZ-UHFFFAOYSA-N

>  <tags>  (1597) 
fragmenstein_placed,CpKRS_FrAncestor_bulkdock_iter2

>  <ref_pdb>  (1597) 
x0654b

>  <energy_score>  (1597) 
-20.615718

>  <distance_score>  (1597) 
0.513107

>  <HIPPO Pose ID>  (1597) 
61194

>  <ref_mols>  (1597) 
x0504b

>  <smiles>  (1597) 
O=C(NCCF)c1c(Cl)nsc1Cl

>  <HIPPO Compound ID>  (1597) 
272311

>  <alias>  (1597) 
IPHRJUXQJCOSRZ-UHFFFAOYSA-N-P49

>  <subsites>  (1597) 


>  <placement_batch>  (1597) 
CpKRS_FrAncestor_bulkdock_iter2

>  <name>  (1597) 
IPHRJUXQJCOSRZ-UHFFFAOYSA-N-P49

$$$$
YVSRIHGPYPFMRQ-UHFFFAOYSA-N-P6
     RDKit          3D

  9  9  0  0  0  0  0  0  0  0999 V2000
    6.0399   -7.6166   23.9654 S   0  0  0  0  0  0  0  0  0  0  0  0
    5.0848   -9.1259   24.2657 C   0  0  0  0  0  0  0  0  0  0  0  0
    5.6338   -9.8849   25.4819 C   0  0  0  0  0  0  0  0  0  0  0  0
    4.8621  -11.0496   25.9380 N   0  0  0  0  0  0  0  0  0  0  0  0
    4.4303  -11.9469   24.8601 C   0  0  0  0  0  0  0  0  0  0  0  0
    3.7533  -13.2276   25.4019 C   0  0  0  0  0  0  0  0  0  0  0  0
    3.0928  -13.0917   26.7072 N   0  0  0  0  0  0  0  0  0  0  0  0
    2.6045  -11.7208   26.9005 C   0  0  0  0  0  0  0  0  0  0  0  0
    3.6990  -10.6383   26.7555 C   0  0  0  0  0  0  0  0  0  0  0  0
  1  2  1  0
  2  3  1  0
  3  4  1  0
  4  5  1  0
  5  6  1  0
  6  7  1  0
  7  8  1  0
  8  9  1  0
  9  4  1  0
M  END
>  <inchikey>  (1598) 
YVSRIHGPYPFMRQ-UHFFFAOYSA-N

>  <tags>  (1598) 
fragmenstein_placed,CpKRS_FrAncestor_bulkdock_iter2

>  <ref_pdb>  (1598) 
x0654b

>  <energy_score>  (1598) 
-30.02675

>  <distance_score>  (1598) 
0.482134

>  <HIPPO Pose ID>  (1598) 
61202

>  <ref_mols>  (1598) 
x0414a

>  <smiles>  (1598) 
SCCN1CCNCC1

>  <HIPPO Compound ID>  (1598) 
214118

>  <alias>  (1598) 
YVSRIHGPYPFMRQ-UHFFFAOYSA-N-P6

>  <subsites>  (1598) 


>  <placement_batch>  (1598) 
CpKRS_FrAncestor_bulkdock_iter2

>  <name>  (1598) 
YVSRIHGPYPFMRQ-UHFFFAOYSA-N-P6

$$$$
MJSDACMAVKAHDN-BQBZGAKWSA-N-P12
     RDKit          3D

 15 16  0  0  0  0  0  0  0  0999 V2000
    5.2127  -13.8250   24.3536 O   0  0  0  0  0  0  0  0  0  0  0  0
    4.3293  -13.1154   24.6202 C   0  0  0  0  0  0  0  0  0  0  0  0
    4.1207  -11.6246   24.3099 N   0  0  0  0  0  0  0  0  0  0  0  0
    4.9943  -10.6708   23.6904 C   0  0  1  0  0  0  0  0  0  0  0  0
    4.9042  -10.7130   22.1702 C   0  0  0  0  0  0  0  0  0  0  0  0
    5.4001   -9.3417   21.7102 C   0  0  0  0  0  0  0  0  0  0  0  0
    5.5118   -8.4788   22.9622 C   0  0  0  0  0  0  0  0  0  0  0  0
    4.6909   -9.2131   24.0029 C   0  0  2  0  0  0  0  0  0  0  0  0
    5.0867   -8.8691   25.2473 F   0  0  0  0  0  0  0  0  0  0  0  0
    3.1957  -13.5810   25.4316 C   0  0  0  0  0  0  0  0  0  0  0  0
    2.0030  -12.9525   25.3780 N   0  0  0  0  0  0  0  0  0  0  0  0
    1.1981  -13.5851   26.3121 O   0  0  0  0  0  0  0  0  0  0  0  0
    1.8998  -14.5753   26.9141 C   0  0  0  0  0  0  0  0  0  0  0  0
    3.1493  -14.6287   26.3708 C   0  0  0  0  0  0  0  0  0  0  0  0
    4.5351  -15.7776   26.8438 Br  0  0  0  0  0  0  0  0  0  0  0  0
  1  2  2  0
  2  3  1  0
  4  3  1  1
  4  5  1  0
  5  6  1  0
  6  7  1  0
  7  8  1  0
  8  9  1  1
  2 10  1  0
 10 11  2  0
 11 12  1  0
 12 13  1  0
 13 14  2  0
 14 15  1  0
  8  4  1  0
 14 10  1  0
M  END
>  <inchikey>  (1599) 
MJSDACMAVKAHDN-UHFFFAOYSA-N

>  <tags>  (1599) 
fragmenstein_placed,CpKRS_FrAncestor_bulkdock_iter2

>  <ref_pdb>  (1599) 
x0654b

>  <energy_score>  (1599) 
-3.252278

>  <distance_score>  (1599) 
0.32452

>  <HIPPO Pose ID>  (1599) 
61213

>  <ref_mols>  (1599) 
x0421b

>  <smiles>  (1599) 
O=C(N[C@H]1CCC[C@@H]1F)c1nocc1Br

>  <HIPPO Compound ID>  (1599) 
453164

>  <alias>  (1599) 
MJSDACMAVKAHDN-BQBZGAKWSA-N-P12

>  <subsites>  (1599) 


>  <placement_batch>  (1599) 
CpKRS_FrAncestor_bulkdock_iter2

>  <name>  (1599) 
MJSDACMAVKAHDN-BQBZGAKWSA-N-P12

$$$$
ZMGDGCGYDDEWRZ-BQBZGAKWSA-N-P13
     RDKit          3D

 15 16  0  0  0  0  0  0  0  0999 V2000
    5.3593  -13.8277   24.4485 O   0  0  0  0  0  0  0  0  0  0  0  0
    4.4701  -13.1290   24.7241 C   0  0  0  0  0  0  0  0  0  0  0  0
    4.2359  -11.6432   24.4084 N   0  0  0  0  0  0  0  0  0  0  0  0
    5.0876  -10.6800   23.7698 C   0  0  1  0  0  0  0  0  0  0  0  0
    4.9771  -10.7260   22.2519 C   0  0  0  0  0  0  0  0  0  0  0  0
    5.4539   -9.3525   21.7812 C   0  0  0  0  0  0  0  0  0  0  0  0
    5.5510   -8.4752   23.0256 C   0  0  0  0  0  0  0  0  0  0  0  0
    4.7825   -9.2254   24.0971 C   0  0  2  0  0  0  0  0  0  0  0  0
    5.2456   -8.8880   25.3222 F   0  0  0  0  0  0  0  0  0  0  0  0
    3.3397  -13.6363   25.5195 C   0  0  0  0  0  0  0  0  0  0  0  0
    2.1479  -13.0014   25.5416 N   0  0  0  0  0  0  0  0  0  0  0  0
    1.3495  -13.7293   26.4081 O   0  0  0  0  0  0  0  0  0  0  0  0
    2.0549  -14.7739   26.9011 C   0  0  0  0  0  0  0  0  0  0  0  0
    3.3134  -14.7699   26.3665 C   0  0  0  0  0  0  0  0  0  0  0  0
    4.5695  -15.8497   26.6984 Cl  0  0  0  0  0  0  0  0  0  0  0  0
  1  2  2  0
  2  3  1  0
  4  3  1  1
  4  5  1  0
  5  6  1  0
  6  7  1  0
  7  8  1  0
  8  9  1  1
  2 10  1  0
 10 11  2  0
 11 12  1  0
 12 13  1  0
 13 14  2  0
 14 15  1  0
  8  4  1  0
 14 10  1  0
M  END
>  <inchikey>  (1600) 
ZMGDGCGYDDEWRZ-UHFFFAOYSA-N

>  <tags>  (1600) 
fragmenstein_placed,CpKRS_FrAncestor_bulkdock_iter2

>  <ref_pdb>  (1600) 
x0654b

>  <energy_score>  (1600) 
-3.383353

>  <distance_score>  (1600) 
0.233752

>  <HIPPO Pose ID>  (1600) 
61226

>  <ref_mols>  (1600) 
x0421c

>  <smiles>  (1600) 
O=C(N[C@H]1CCC[C@@H]1F)c1nocc1Cl

>  <HIPPO Compound ID>  (1600) 
453165

>  <alias>  (1600) 
ZMGDGCGYDDEWRZ-BQBZGAKWSA-N-P13

>  <subsites>  (1600) 


>  <placement_batch>  (1600) 
CpKRS_FrAncestor_bulkdock_iter2

>  <name>  (1600) 
ZMGDGCGYDDEWRZ-BQBZGAKWSA-N-P13

$$$$
DPFSQPNURCVOGC-BQBZGAKWSA-N-P13
     RDKit          3D

 15 16  0  0  0  0  0  0  0  0999 V2000
    5.2071  -13.8020   24.1893 O   0  0  0  0  0  0  0  0  0  0  0  0
    4.3690  -13.0835   24.5566 C   0  0  0  0  0  0  0  0  0  0  0  0
    4.2042  -11.5690   24.3692 N   0  0  0  0  0  0  0  0  0  0  0  0
    5.0810  -10.6030   23.7730 C   0  0  1  0  0  0  0  0  0  0  0  0
    5.0286  -10.6488   22.2507 C   0  0  0  0  0  0  0  0  0  0  0  0
    5.4813   -9.2627   21.7952 C   0  0  0  0  0  0  0  0  0  0  0  0
    5.5740   -8.4025   23.0508 C   0  0  0  0  0  0  0  0  0  0  0  0
    4.7665   -9.1506   24.0938 C   0  0  2  0  0  0  0  0  0  0  0  0
    5.1898   -8.8193   25.3350 F   0  0  0  0  0  0  0  0  0  0  0  0
    3.2541  -13.5846   25.3999 C   0  0  0  0  0  0  0  0  0  0  0  0
    2.0935  -12.9036   25.4393 N   0  0  0  0  0  0  0  0  0  0  0  0
    1.0381  -13.6737   26.4560 S   0  0  0  0  0  0  0  0  0  0  0  0
    2.1000  -14.9204   26.9195 C   0  0  0  0  0  0  0  0  0  0  0  0
    3.2822  -14.7407   26.2441 C   0  0  0  0  0  0  0  0  0  0  0  0
    4.7781  -15.8575   26.4720 Br  0  0  0  0  0  0  0  0  0  0  0  0
  1  2  2  0
  2  3  1  0
  4  3  1  1
  4  5  1  0
  5  6  1  0
  6  7  1  0
  7  8  1  0
  8  9  1  1
  2 10  1  0
 10 11  2  0
 11 12  1  0
 12 13  1  0
 13 14  2  0
 14 15  1  0
  8  4  1  0
 14 10  1  0
M  END
>  <inchikey>  (1601) 
DPFSQPNURCVOGC-UHFFFAOYSA-N

>  <tags>  (1601) 
fragmenstein_placed,CpKRS_FrAncestor_bulkdock_iter2

>  <ref_pdb>  (1601) 
x0654b

>  <energy_score>  (1601) 
-12.02739

>  <distance_score>  (1601) 
0.319372

>  <HIPPO Pose ID>  (1601) 
61238

>  <ref_mols>  (1601) 
x0421c

>  <smiles>  (1601) 
O=C(N[C@H]1CCC[C@@H]1F)c1nscc1Br

>  <HIPPO Compound ID>  (1601) 
453166

>  <alias>  (1601) 
DPFSQPNURCVOGC-BQBZGAKWSA-N-P13

>  <subsites>  (1601) 


>  <placement_batch>  (1601) 
CpKRS_FrAncestor_bulkdock_iter2

>  <name>  (1601) 
DPFSQPNURCVOGC-BQBZGAKWSA-N-P13

$$$$
SZTCSAIVRGHDSW-YFKPBYRVSA-N-P13
     RDKit          3D

 16 17  0  0  0  0  0  0  0  0999 V2000
    5.3588  -13.8734   24.5869 O   0  0  0  0  0  0  0  0  0  0  0  0
    4.4361  -13.1946   24.7923 C   0  0  0  0  0  0  0  0  0  0  0  0
    4.1638  -11.7360   24.3918 N   0  0  0  0  0  0  0  0  0  0  0  0
    5.0029  -10.7802   23.7400 C   0  0  1  0  0  0  0  0  0  0  0  0
    5.1359  -11.0401   22.2438 C   0  0  0  0  0  0  0  0  0  0  0  0
    5.5431   -9.6923   21.6552 C   0  0  0  0  0  0  0  0  0  0  0  0
    5.3710   -8.6915   22.7805 C   0  0  0  0  0  0  0  0  0  0  0  0
    4.8289   -7.5466   22.3286 F   0  0  0  0  0  0  0  0  0  0  0  0
    6.5669   -8.3820   23.3267 F   0  0  0  0  0  0  0  0  0  0  0  0
    4.4949   -9.3545   23.8160 C   0  0  0  0  0  0  0  0  0  0  0  0
    3.2951  -13.6930   25.5775 C   0  0  0  0  0  0  0  0  0  0  0  0
    2.1034  -13.0570   25.5774 N   0  0  0  0  0  0  0  0  0  0  0  0
    1.2971  -13.7691   26.4494 O   0  0  0  0  0  0  0  0  0  0  0  0
    1.9978  -14.8050   26.9668 C   0  0  0  0  0  0  0  0  0  0  0  0
    3.2602  -14.8115   26.4419 C   0  0  0  0  0  0  0  0  0  0  0  0
    4.5136  -15.8837   26.7992 Cl  0  0  0  0  0  0  0  0  0  0  0  0
  1  2  2  0
  2  3  1  0
  4  3  1  6
  4  5  1  0
  5  6  1  0
  6  7  1  0
  7  8  1  0
  7  9  1  0
  7 10  1  0
  2 11  1  0
 11 12  2  0
 12 13  1  0
 13 14  1  0
 14 15  2  0
 15 16  1  0
 10  4  1  0
 15 11  1  0
M  END
>  <inchikey>  (1602) 
SZTCSAIVRGHDSW-UHFFFAOYSA-N

>  <tags>  (1602) 
fragmenstein_placed,CpKRS_FrAncestor_bulkdock_iter2

>  <ref_pdb>  (1602) 
x0654b

>  <energy_score>  (1602) 
-10.409036

>  <distance_score>  (1602) 
0.276147

>  <HIPPO Pose ID>  (1602) 
61242

>  <ref_mols>  (1602) 
x0421c

>  <smiles>  (1602) 
O=C(N[C@H]1CCC(F)(F)C1)c1nocc1Cl

>  <HIPPO Compound ID>  (1602) 
452913

>  <alias>  (1602) 
SZTCSAIVRGHDSW-YFKPBYRVSA-N-P13

>  <subsites>  (1602) 


>  <placement_batch>  (1602) 
CpKRS_FrAncestor_bulkdock_iter2

>  <name>  (1602) 
SZTCSAIVRGHDSW-YFKPBYRVSA-N-P13

$$$$
XGAYCCAEPMZZGW-BQBZGAKWSA-N-P13
     RDKit          3D

 14 15  0  0  0  0  0  0  0  0999 V2000
    5.5313  -13.9251   24.7533 O   0  0  0  0  0  0  0  0  0  0  0  0
    4.5143  -13.3715   24.8750 C   0  0  0  0  0  0  0  0  0  0  0  0
    4.0779  -11.9755   24.4049 N   0  0  0  0  0  0  0  0  0  0  0  0
    4.8240  -10.9334   23.7725 C   0  0  1  0  0  0  0  0  0  0  0  0
    5.1177  -11.1911   22.3019 C   0  0  0  0  0  0  0  0  0  0  0  0
    5.4676   -9.8107   21.7440 C   0  0  0  0  0  0  0  0  0  0  0  0
    4.9133   -8.7951   22.7465 C   0  0  2  0  0  0  0  0  0  0  0  0
    6.2085   -7.9427   23.6198 Cl  0  0  0  0  0  0  0  0  0  0  0  0
    4.0881   -9.6042   23.7356 C   0  0  0  0  0  0  0  0  0  0  0  0
    3.4255  -13.9737   25.6634 C   0  0  0  0  0  0  0  0  0  0  0  0
    3.5070  -15.1262   26.4824 C   0  0  0  0  0  0  0  0  0  0  0  0
    2.2762  -15.2130   27.0708 C   0  0  0  0  0  0  0  0  0  0  0  0
    1.4813  -14.2153   26.6159 O   0  0  0  0  0  0  0  0  0  0  0  0
    2.1940  -13.4273   25.7279 N   0  0  0  0  0  0  0  0  0  0  0  0
  1  2  2  0
  2  3  1  0
  4  3  1  6
  4  5  1  0
  5  6  1  0
  6  7  1  0
  7  8  1  1
  7  9  1  0
  2 10  1  0
 10 11  1  0
 11 12  2  0
 12 13  1  0
 13 14  1  0
  9  4  1  0
 14 10  2  0
M  END
>  <inchikey>  (1603) 
XGAYCCAEPMZZGW-UHFFFAOYSA-N

>  <tags>  (1603) 
fragmenstein_placed,CpKRS_FrAncestor_bulkdock_iter2

>  <ref_pdb>  (1603) 
x0654b

>  <energy_score>  (1603) 
-4.70908

>  <distance_score>  (1603) 
0.44936

>  <HIPPO Pose ID>  (1603) 
61246

>  <ref_mols>  (1603) 
x0421c

>  <smiles>  (1603) 
O=C(N[C@H]1CC[C@H](Cl)C1)c1ccon1

>  <HIPPO Compound ID>  (1603) 
280358

>  <alias>  (1603) 
XGAYCCAEPMZZGW-BQBZGAKWSA-N-P13

>  <subsites>  (1603) 


>  <placement_batch>  (1603) 
CpKRS_FrAncestor_bulkdock_iter2

>  <name>  (1603) 
XGAYCCAEPMZZGW-BQBZGAKWSA-N-P13

$$$$
CVHYDQQCJMRPKR-BQBZGAKWSA-N-P13
     RDKit          3D

 14 15  0  0  0  0  0  0  0  0999 V2000
    5.5374  -13.9073   24.7421 O   0  0  0  0  0  0  0  0  0  0  0  0
    4.5194  -13.3548   24.8593 C   0  0  0  0  0  0  0  0  0  0  0  0
    4.0853  -11.9582   24.3917 N   0  0  0  0  0  0  0  0  0  0  0  0
    4.8341  -10.9142   23.7681 C   0  0  1  0  0  0  0  0  0  0  0  0
    5.1323  -11.1665   22.2975 C   0  0  0  0  0  0  0  0  0  0  0  0
    5.4822   -9.7840   21.7453 C   0  0  0  0  0  0  0  0  0  0  0  0
    4.9311   -8.7724   22.7536 C   0  0  2  0  0  0  0  0  0  0  0  0
    6.2280   -7.9335   23.6377 Cl  0  0  0  0  0  0  0  0  0  0  0  0
    4.0993   -9.5845   23.7344 C   0  0  0  0  0  0  0  0  0  0  0  0
    3.4141  -13.9604   25.6405 C   0  0  0  0  0  0  0  0  0  0  0  0
    3.5436  -15.1516   26.4320 C   0  0  0  0  0  0  0  0  0  0  0  0
    2.3778  -15.4234   27.1100 C   0  0  0  0  0  0  0  0  0  0  0  0
    1.2240  -14.2349   26.7030 S   0  0  0  0  0  0  0  0  0  0  0  0
    2.2040  -13.3759   25.6827 N   0  0  0  0  0  0  0  0  0  0  0  0
  1  2  2  0
  2  3  1  0
  4  3  1  6
  4  5  1  0
  5  6  1  0
  6  7  1  0
  7  8  1  1
  7  9  1  0
  2 10  1  0
 10 11  1  0
 11 12  2  0
 12 13  1  0
 13 14  1  0
  9  4  1  0
 14 10  2  0
M  END
>  <inchikey>  (1604) 
CVHYDQQCJMRPKR-UHFFFAOYSA-N

>  <tags>  (1604) 
fragmenstein_placed,CpKRS_FrAncestor_bulkdock_iter2

>  <ref_pdb>  (1604) 
x0654b

>  <energy_score>  (1604) 
-27.741525

>  <distance_score>  (1604) 
0.456523

>  <HIPPO Pose ID>  (1604) 
61250

>  <ref_mols>  (1604) 
x0421c

>  <smiles>  (1604) 
O=C(N[C@H]1CC[C@H](Cl)C1)c1ccsn1

>  <HIPPO Compound ID>  (1604) 
280362

>  <alias>  (1604) 
CVHYDQQCJMRPKR-BQBZGAKWSA-N-P13

>  <subsites>  (1604) 


>  <placement_batch>  (1604) 
CpKRS_FrAncestor_bulkdock_iter2

>  <name>  (1604) 
CVHYDQQCJMRPKR-BQBZGAKWSA-N-P13

$$$$
PIEMHELGOGIIAW-WDSKDSINSA-N-P13
     RDKit          3D

 15 16  0  0  0  0  0  0  0  0999 V2000
    5.6053  -13.8912   24.8533 O   0  0  0  0  0  0  0  0  0  0  0  0
    4.5674  -13.3681   24.8936 C   0  0  0  0  0  0  0  0  0  0  0  0
    4.1235  -11.9973   24.3673 N   0  0  0  0  0  0  0  0  0  0  0  0
    4.8801  -10.9437   23.7663 C   0  0  1  0  0  0  0  0  0  0  0  0
    5.1633  -11.1638   22.2876 C   0  0  0  0  0  0  0  0  0  0  0  0
    5.5077   -9.7701   21.7601 C   0  0  0  0  0  0  0  0  0  0  0  0
    4.9677   -8.7786   22.7940 C   0  0  2  0  0  0  0  0  0  0  0  0
    6.2719   -7.9555   23.6810 Cl  0  0  0  0  0  0  0  0  0  0  0  0
    4.1475   -9.6110   23.7671 C   0  0  0  0  0  0  0  0  0  0  0  0
    3.4262  -13.9688   25.5799 C   0  0  0  0  0  0  0  0  0  0  0  0
    3.4217  -15.1303   26.3147 C   0  0  0  0  0  0  0  0  0  0  0  0
    2.1690  -15.3061   26.8194 O   0  0  0  0  0  0  0  0  0  0  0  0
    1.4669  -14.2319   26.3536 C   0  0  0  0  0  0  0  0  0  0  0  0
   -0.1975  -13.9691   26.6880 Cl  0  0  0  0  0  0  0  0  0  0  0  0
    2.1608  -13.3948   25.6136 N   0  0  0  0  0  0  0  0  0  0  0  0
  1  2  2  0
  2  3  1  0
  4  3  1  6
  4  5  1  0
  5  6  1  0
  6  7  1  0
  7  8  1  1
  7  9  1  0
  2 10  1  0
 10 11  2  0
 11 12  1  0
 12 13  1  0
 13 14  1  0
 13 15  2  0
  9  4  1  0
 15 10  1  0
M  END
>  <inchikey>  (1605) 
PIEMHELGOGIIAW-UHFFFAOYSA-N

>  <tags>  (1605) 
fragmenstein_placed,CpKRS_FrAncestor_bulkdock_iter2

>  <ref_pdb>  (1605) 
x0654b

>  <energy_score>  (1605) 
-17.893257

>  <distance_score>  (1605) 
0.442708

>  <HIPPO Pose ID>  (1605) 
61254

>  <ref_mols>  (1605) 
x0421c

>  <smiles>  (1605) 
O=C(N[C@H]1CC[C@H](Cl)C1)c1coc(Cl)n1

>  <HIPPO Compound ID>  (1605) 
453167

>  <alias>  (1605) 
PIEMHELGOGIIAW-WDSKDSINSA-N-P13

>  <subsites>  (1605) 


>  <placement_batch>  (1605) 
CpKRS_FrAncestor_bulkdock_iter2

>  <name>  (1605) 
PIEMHELGOGIIAW-WDSKDSINSA-N-P13

$$$$
MGOPNOVXNVMOOB-WDSKDSINSA-N-P13
     RDKit          3D

 15 16  0  0  0  0  0  0  0  0999 V2000
    5.7471  -13.8597   24.8125 O   0  0  0  0  0  0  0  0  0  0  0  0
    4.6944  -13.3708   24.8814 C   0  0  0  0  0  0  0  0  0  0  0  0
    4.1902  -12.0206   24.3615 N   0  0  0  0  0  0  0  0  0  0  0  0
    4.8921  -10.9479   23.7322 C   0  0  1  0  0  0  0  0  0  0  0  0
    5.1694  -11.1830   22.2558 C   0  0  0  0  0  0  0  0  0  0  0  0
    5.4830   -9.7887   21.7139 C   0  0  0  0  0  0  0  0  0  0  0  0
    4.8915   -8.8007   22.7226 C   0  0  2  0  0  0  0  0  0  0  0  0
    6.1530   -7.8912   23.5863 Cl  0  0  0  0  0  0  0  0  0  0  0  0
    4.1102   -9.6452   23.7178 C   0  0  0  0  0  0  0  0  0  0  0  0
    3.6017  -13.9970   25.6404 C   0  0  0  0  0  0  0  0  0  0  0  0
    3.7708  -15.1046   26.4545 C   0  0  0  0  0  0  0  0  0  0  0  0
    2.3117  -15.4525   27.2756 S   0  0  0  0  0  0  0  0  0  0  0  0
    1.5690  -14.1752   26.4469 C   0  0  0  0  0  0  0  0  0  0  0  0
   -0.0984  -13.8490   26.6903 Cl  0  0  0  0  0  0  0  0  0  0  0  0
    2.3050  -13.4588   25.6377 N   0  0  0  0  0  0  0  0  0  0  0  0
  1  2  2  0
  2  3  1  0
  4  3  1  6
  4  5  1  0
  5  6  1  0
  6  7  1  0
  7  8  1  1
  7  9  1  0
  2 10  1  0
 10 11  2  0
 11 12  1  0
 12 13  1  0
 13 14  1  0
 13 15  2  0
  9  4  1  0
 15 10  1  0
M  END
>  <inchikey>  (1606) 
MGOPNOVXNVMOOB-UHFFFAOYSA-N

>  <tags>  (1606) 
fragmenstein_placed,CpKRS_FrAncestor_bulkdock_iter2

>  <ref_pdb>  (1606) 
x0654b

>  <energy_score>  (1606) 
-44.132966

>  <distance_score>  (1606) 
0.456033

>  <HIPPO Pose ID>  (1606) 
61258

>  <ref_mols>  (1606) 
x0421c

>  <smiles>  (1606) 
O=C(N[C@H]1CC[C@H](Cl)C1)c1csc(Cl)n1

>  <HIPPO Compound ID>  (1606) 
453168

>  <alias>  (1606) 
MGOPNOVXNVMOOB-WDSKDSINSA-N-P13

>  <subsites>  (1606) 


>  <placement_batch>  (1606) 
CpKRS_FrAncestor_bulkdock_iter2

>  <name>  (1606) 
MGOPNOVXNVMOOB-WDSKDSINSA-N-P13

$$$$
KUUXRDZXONIESX-WDSKDSINSA-N-P13
     RDKit          3D

 15 16  0  0  0  0  0  0  0  0999 V2000
    5.3995  -13.8095   24.6143 O   0  0  0  0  0  0  0  0  0  0  0  0
    4.4148  -13.2116   24.7685 C   0  0  0  0  0  0  0  0  0  0  0  0
    4.0437  -11.7855   24.3521 N   0  0  0  0  0  0  0  0  0  0  0  0
    4.8299  -10.7643   23.7454 C   0  0  1  0  0  0  0  0  0  0  0  0
    5.1540  -11.0145   22.2815 C   0  0  0  0  0  0  0  0  0  0  0  0
    5.5456   -9.6348   21.7497 C   0  0  0  0  0  0  0  0  0  0  0  0
    5.0422   -8.6198   22.7805 C   0  0  2  0  0  0  0  0  0  0  0  0
    6.3649   -7.9020   23.7312 Cl  0  0  0  0  0  0  0  0  0  0  0  0
    4.1412   -9.4114   23.7139 C   0  0  0  0  0  0  0  0  0  0  0  0
    3.2777  -13.7503   25.5295 C   0  0  0  0  0  0  0  0  0  0  0  0
    2.0170  -13.1164   25.4949 N   0  0  0  0  0  0  0  0  0  0  0  0
    1.1957  -13.7472   26.3051 C   0  0  0  0  0  0  0  0  0  0  0  0
    1.8532  -15.0643   27.1774 S   0  0  0  0  0  0  0  0  0  0  0  0
    3.3319  -14.8297   26.3809 C   0  0  0  0  0  0  0  0  0  0  0  0
    4.6488  -15.8536   26.7559 Cl  0  0  0  0  0  0  0  0  0  0  0  0
  1  2  2  0
  2  3  1  0
  4  3  1  6
  4  5  1  0
  5  6  1  0
  6  7  1  0
  7  8  1  1
  7  9  1  0
  2 10  1  0
 10 11  1  0
 11 12  2  0
 12 13  1  0
 13 14  1  0
 14 15  1  0
  9  4  1  0
 14 10  2  0
M  END
>  <inchikey>  (1607) 
KUUXRDZXONIESX-UHFFFAOYSA-N

>  <tags>  (1607) 
fragmenstein_placed,CpKRS_FrAncestor_bulkdock_iter2

>  <ref_pdb>  (1607) 
x0654b

>  <energy_score>  (1607) 
-69.42846

>  <distance_score>  (1607) 
0.368382

>  <HIPPO Pose ID>  (1607) 
61262

>  <ref_mols>  (1607) 
x0421c

>  <smiles>  (1607) 
O=C(N[C@H]1CC[C@H](Cl)C1)c1ncsc1Cl

>  <HIPPO Compound ID>  (1607) 
453169

>  <alias>  (1607) 
KUUXRDZXONIESX-WDSKDSINSA-N-P13

>  <subsites>  (1607) 


>  <placement_batch>  (1607) 
CpKRS_FrAncestor_bulkdock_iter2

>  <name>  (1607) 
KUUXRDZXONIESX-WDSKDSINSA-N-P13

$$$$
VLPXMHKLDMHPOV-WDSKDSINSA-N-P13
     RDKit          3D

 15 16  0  0  0  0  0  0  0  0999 V2000
    5.2857  -13.8437   24.5517 O   0  0  0  0  0  0  0  0  0  0  0  0
    4.3270  -13.2168   24.7559 C   0  0  0  0  0  0  0  0  0  0  0  0
    3.9888  -11.7660   24.3843 N   0  0  0  0  0  0  0  0  0  0  0  0
    4.7878  -10.7562   23.7710 C   0  0  1  0  0  0  0  0  0  0  0  0
    5.1347  -11.0356   22.3163 C   0  0  0  0  0  0  0  0  0  0  0  0
    5.5289   -9.6671   21.7574 C   0  0  0  0  0  0  0  0  0  0  0  0
    5.0221   -8.6316   22.7652 C   0  0  2  0  0  0  0  0  0  0  0  0
    6.3425   -7.9112   23.7180 Cl  0  0  0  0  0  0  0  0  0  0  0  0
    4.1043   -9.4020   23.7007 C   0  0  0  0  0  0  0  0  0  0  0  0
    3.2287  -13.7600   25.5719 C   0  0  0  0  0  0  0  0  0  0  0  0
    2.0179  -13.1625   25.6191 N   0  0  0  0  0  0  0  0  0  0  0  0
    1.2708  -13.8961   26.5246 O   0  0  0  0  0  0  0  0  0  0  0  0
    2.0259  -14.9051   27.0177 C   0  0  0  0  0  0  0  0  0  0  0  0
    3.2650  -14.8744   26.4409 C   0  0  0  0  0  0  0  0  0  0  0  0
    4.5673  -15.9004   26.7549 Cl  0  0  0  0  0  0  0  0  0  0  0  0
  1  2  2  0
  2  3  1  0
  4  3  1  6
  4  5  1  0
  5  6  1  0
  6  7  1  0
  7  8  1  1
  7  9  1  0
  2 10  1  0
 10 11  2  0
 11 12  1  0
 12 13  1  0
 13 14  2  0
 14 15  1  0
  9  4  1  0
 14 10  1  0
M  END
>  <inchikey>  (1608) 
VLPXMHKLDMHPOV-UHFFFAOYSA-N

>  <tags>  (1608) 
fragmenstein_placed,CpKRS_FrAncestor_bulkdock_iter2

>  <ref_pdb>  (1608) 
x0654b

>  <energy_score>  (1608) 
-2.199048

>  <distance_score>  (1608) 
0.371029

>  <HIPPO Pose ID>  (1608) 
61266

>  <ref_mols>  (1608) 
x0421c

>  <smiles>  (1608) 
O=C(N[C@H]1CC[C@H](Cl)C1)c1nocc1Cl

>  <HIPPO Compound ID>  (1608) 
453170

>  <alias>  (1608) 
VLPXMHKLDMHPOV-WDSKDSINSA-N-P13

>  <subsites>  (1608) 


>  <placement_batch>  (1608) 
CpKRS_FrAncestor_bulkdock_iter2

>  <name>  (1608) 
VLPXMHKLDMHPOV-WDSKDSINSA-N-P13

$$$$
ZCSNAPIQVNLIAN-BQBZGAKWSA-N-P13
     RDKit          3D

 15 16  0  0  0  0  0  0  0  0999 V2000
    5.6305  -13.9957   24.7034 O   0  0  0  0  0  0  0  0  0  0  0  0
    4.6169  -13.4500   24.8771 C   0  0  0  0  0  0  0  0  0  0  0  0
    4.1493  -12.0523   24.4376 N   0  0  0  0  0  0  0  0  0  0  0  0
    4.8589  -10.9999   23.7771 C   0  0  1  0  0  0  0  0  0  0  0  0
    5.1115  -11.2565   22.2988 C   0  0  0  0  0  0  0  0  0  0  0  0
    5.4419   -9.8736   21.7366 C   0  0  0  0  0  0  0  0  0  0  0  0
    4.8523   -8.8651   22.7259 C   0  0  2  0  0  0  0  0  0  0  0  0
    6.1150   -7.9160   23.5425 Cl  0  0  0  0  0  0  0  0  0  0  0  0
    4.0916   -9.6877   23.7556 C   0  0  0  0  0  0  0  0  0  0  0  0
    3.5695  -14.0460   25.6880 C   0  0  0  0  0  0  0  0  0  0  0  0
    2.3128  -13.4765   25.7239 O   0  0  0  0  0  0  0  0  0  0  0  0
    1.5680  -14.2127   26.5949 C   0  0  0  0  0  0  0  0  0  0  0  0
    2.3139  -15.2388   27.1273 C   0  0  0  0  0  0  0  0  0  0  0  0
    3.5823  -15.1261   26.5344 C   0  0  0  0  0  0  0  0  0  0  0  0
    4.6301  -15.9144   26.7938 F   0  0  0  0  0  0  0  0  0  0  0  0
  1  2  2  0
  2  3  1  0
  4  3  1  6
  4  5  1  0
  5  6  1  0
  6  7  1  0
  7  8  1  1
  7  9  1  0
  2 10  1  0
 10 11  1  0
 11 12  1  0
 12 13  2  0
 13 14  1  0
 14 15  1  0
  9  4  1  0
 14 10  2  0
M  END
>  <inchikey>  (1609) 
ZCSNAPIQVNLIAN-UHFFFAOYSA-N

>  <tags>  (1609) 
fragmenstein_placed,CpKRS_FrAncestor_bulkdock_iter2

>  <ref_pdb>  (1609) 
x0654b

>  <energy_score>  (1609) 
-18.618862

>  <distance_score>  (1609) 
0.490921

>  <HIPPO Pose ID>  (1609) 
61270

>  <ref_mols>  (1609) 
x0421c

>  <smiles>  (1609) 
O=C(N[C@H]1CC[C@H](Cl)C1)c1occc1F

>  <HIPPO Compound ID>  (1609) 
453171

>  <alias>  (1609) 
ZCSNAPIQVNLIAN-BQBZGAKWSA-N-P13

>  <subsites>  (1609) 


>  <placement_batch>  (1609) 
CpKRS_FrAncestor_bulkdock_iter2

>  <name>  (1609) 
ZCSNAPIQVNLIAN-BQBZGAKWSA-N-P13

$$$$
NBEUUNKFHJKCSP-BQBZGAKWSA-N-P13
     RDKit          3D

 15 16  0  0  0  0  0  0  0  0999 V2000
    5.5071  -14.0282   24.5481 O   0  0  0  0  0  0  0  0  0  0  0  0
    4.5404  -13.4288   24.7964 C   0  0  0  0  0  0  0  0  0  0  0  0
    4.1437  -11.9845   24.4414 N   0  0  0  0  0  0  0  0  0  0  0  0
    4.8875  -10.9495   23.7922 C   0  0  1  0  0  0  0  0  0  0  0  0
    5.1377  -11.1968   22.3120 C   0  0  0  0  0  0  0  0  0  0  0  0
    5.4851   -9.8133   21.7592 C   0  0  0  0  0  0  0  0  0  0  0  0
    4.9405   -8.8031   22.7727 C   0  0  2  0  0  0  0  0  0  0  0  0
    6.2385   -7.9324   23.6204 Cl  0  0  0  0  0  0  0  0  0  0  0  0
    4.1487   -9.6200   23.7811 C   0  0  0  0  0  0  0  0  0  0  0  0
    3.4949  -14.0293   25.6301 C   0  0  0  0  0  0  0  0  0  0  0  0
    1.8832  -13.4242   25.6780 S   0  0  0  0  0  0  0  0  0  0  0  0
    1.4059  -14.5802   26.8428 C   0  0  0  0  0  0  0  0  0  0  0  0
    2.4359  -15.4295   27.1777 C   0  0  0  0  0  0  0  0  0  0  0  0
    3.6197  -15.1074   26.4744 C   0  0  0  0  0  0  0  0  0  0  0  0
    4.7615  -15.7867   26.6580 F   0  0  0  0  0  0  0  0  0  0  0  0
  1  2  2  0
  2  3  1  0
  4  3  1  6
  4  5  1  0
  5  6  1  0
  6  7  1  0
  7  8  1  1
  7  9  1  0
  2 10  1  0
 10 11  1  0
 11 12  1  0
 12 13  2  0
 13 14  1  0
 14 15  1  0
  9  4  1  0
 14 10  2  0
M  END
>  <inchikey>  (1610) 
NBEUUNKFHJKCSP-UHFFFAOYSA-N

>  <tags>  (1610) 
fragmenstein_placed,CpKRS_FrAncestor_bulkdock_iter2

>  <ref_pdb>  (1610) 
x0654b

>  <energy_score>  (1610) 
-5.985028

>  <distance_score>  (1610) 
0.543852

>  <HIPPO Pose ID>  (1610) 
61274

>  <ref_mols>  (1610) 
x0421c

>  <smiles>  (1610) 
O=C(N[C@H]1CC[C@H](Cl)C1)c1sccc1F

>  <HIPPO Compound ID>  (1610) 
453172

>  <alias>  (1610) 
NBEUUNKFHJKCSP-BQBZGAKWSA-N-P13

>  <subsites>  (1610) 


>  <placement_batch>  (1610) 
CpKRS_FrAncestor_bulkdock_iter2

>  <name>  (1610) 
NBEUUNKFHJKCSP-BQBZGAKWSA-N-P13

$$$$
YMVNWVHTJVAEIV-RXMQYKEDSA-N-P13
     RDKit          3D

 15 16  0  0  0  0  0  0  0  0999 V2000
    5.7277  -13.7175   24.6005 O   0  0  0  0  0  0  0  0  0  0  0  0
    4.7594  -13.0840   24.7295 C   0  0  0  0  0  0  0  0  0  0  0  0
    4.4605  -11.6241   24.3328 N   0  0  0  0  0  0  0  0  0  0  0  0
    5.2553  -10.6742   23.6130 C   0  0  2  0  0  0  0  0  0  0  0  0
    4.8679   -9.2354   23.8602 C   0  0  0  0  0  0  0  0  0  0  0  0
    5.4611   -8.5711   22.6409 C   0  0  0  0  0  0  0  0  0  0  0  0
    5.2081   -9.4693   21.5537 O   0  0  0  0  0  0  0  0  0  0  0  0
    5.1280  -10.8003   22.0998 C   0  0  0  0  0  0  0  0  0  0  0  0
    3.5936  -13.6563   25.3940 C   0  0  0  0  0  0  0  0  0  0  0  0
    2.0265  -12.9957   25.1634 S   0  0  0  0  0  0  0  0  0  0  0  0
    1.3334  -14.1410   26.1876 C   0  0  0  0  0  0  0  0  0  0  0  0
   -0.5343  -14.1461   26.5192 Br  0  0  0  0  0  0  0  0  0  0  0  0
    2.2319  -15.0281   26.7176 C   0  0  0  0  0  0  0  0  0  0  0  0
    3.5356  -14.7440   26.2375 C   0  0  0  0  0  0  0  0  0  0  0  0
    4.6038  -15.4691   26.6046 F   0  0  0  0  0  0  0  0  0  0  0  0
  1  2  2  0
  2  3  1  0
  4  3  1  1
  4  5  1  0
  5  6  1  0
  6  7  1  0
  7  8  1  0
  2  9  1  0
  9 10  1  0
 10 11  1  0
 11 12  1  0
 11 13  2  0
 13 14  1  0
 14 15  1  0
  8  4  1  0
 14  9  2  0
M  END
>  <inchikey>  (1611) 
YMVNWVHTJVAEIV-UHFFFAOYSA-N

>  <tags>  (1611) 
fragmenstein_placed,CpKRS_FrAncestor_bulkdock_iter2

>  <ref_pdb>  (1611) 
x0654b

>  <energy_score>  (1611) 
-3.321195

>  <distance_score>  (1611) 
0.321099

>  <HIPPO Pose ID>  (1611) 
61282

>  <ref_mols>  (1611) 
x0421c

>  <smiles>  (1611) 
O=C(N[C@@H]1CCOC1)c1sc(Br)cc1F

>  <HIPPO Compound ID>  (1611) 
452920

>  <alias>  (1611) 
YMVNWVHTJVAEIV-RXMQYKEDSA-N-P13

>  <subsites>  (1611) 


>  <placement_batch>  (1611) 
CpKRS_FrAncestor_bulkdock_iter2

>  <name>  (1611) 
YMVNWVHTJVAEIV-RXMQYKEDSA-N-P13

$$$$
MUVIKWSNYIJHEW-UHFFFAOYSA-N-P35
     RDKit          3D

 16 17  0  0  0  0  0  0  0  0999 V2000
    5.5360  -13.5947   24.5242 O   0  0  0  0  0  0  0  0  0  0  0  0
    4.3609  -13.2783   24.6215 C   0  0  0  0  0  0  0  0  0  0  0  0
    3.6925  -12.4403   23.7873 O   0  0  0  0  0  0  0  0  0  0  0  0
    4.4144  -12.0083   22.6304 C   0  0  0  0  0  0  0  0  0  0  0  0
    4.8601  -10.6138   22.8607 C   0  0  0  0  0  0  0  0  0  0  0  0
    5.7766  -10.0531   23.7207 C   0  0  0  0  0  0  0  0  0  0  0  0
    5.8083   -8.6711   23.4579 C   0  0  0  0  0  0  0  0  0  0  0  0
    4.9230   -8.4766   22.4280 C   0  0  0  0  0  0  0  0  0  0  0  0
    4.3291   -9.6415   22.0656 O   0  0  0  0  0  0  0  0  0  0  0  0
    3.4882  -13.7256   25.7309 C   0  0  0  0  0  0  0  0  0  0  0  0
    3.9740  -14.6569   26.6463 C   0  0  0  0  0  0  0  0  0  0  0  0
    3.3164  -14.9758   27.7955 N   0  0  0  0  0  0  0  0  0  0  0  0
    2.1413  -14.3330   27.9599 C   0  0  0  0  0  0  0  0  0  0  0  0
    1.2218  -14.5353   29.5918 Br  0  0  0  0  0  0  0  0  0  0  0  0
    1.6305  -13.4457   27.0182 C   0  0  0  0  0  0  0  0  0  0  0  0
    2.2787  -13.1190   25.8819 N   0  0  0  0  0  0  0  0  0  0  0  0
  1  2  2  0
  2  3  1  0
  3  4  1  0
  4  5  1  0
  5  6  2  0
  6  7  1  0
  7  8  2  0
  8  9  1  0
  2 10  1  0
 10 11  2  0
 11 12  1  0
 12 13  2  0
 13 14  1  0
 13 15  1  0
 15 16  2  0
  9  5  1  0
 16 10  1  0
M  END
>  <inchikey>  (1612) 
MUVIKWSNYIJHEW-UHFFFAOYSA-N

>  <tags>  (1612) 
fragmenstein_placed,CpKRS_FrAncestor_bulkdock_iter2

>  <ref_pdb>  (1612) 
x0654b

>  <energy_score>  (1612) 
-18.969802

>  <distance_score>  (1612) 
0.38247

>  <HIPPO Pose ID>  (1612) 
61301

>  <ref_mols>  (1612) 
x0492b

>  <smiles>  (1612) 
O=C(OCc1ccco1)c1cnc(Br)cn1

>  <HIPPO Compound ID>  (1612) 
192429

>  <alias>  (1612) 
MUVIKWSNYIJHEW-UHFFFAOYSA-N-P35

>  <subsites>  (1612) 


>  <placement_batch>  (1612) 
CpKRS_FrAncestor_bulkdock_iter2

>  <name>  (1612) 
MUVIKWSNYIJHEW-UHFFFAOYSA-N-P35

$$$$
GCGRUALTAVTMMW-UHFFFAOYSA-N-P34
     RDKit          3D

 16 17  0  0  0  0  0  0  0  0999 V2000
    5.5569  -13.5646   24.5046 O   0  0  0  0  0  0  0  0  0  0  0  0
    4.3855  -13.2282   24.5583 C   0  0  0  0  0  0  0  0  0  0  0  0
    3.7679  -12.3573   23.7213 O   0  0  0  0  0  0  0  0  0  0  0  0
    4.5464  -11.8931   22.6123 C   0  0  0  0  0  0  0  0  0  0  0  0
    4.9250  -10.4811   22.8701 C   0  0  0  0  0  0  0  0  0  0  0  0
    5.7880   -9.8773   23.7580 C   0  0  0  0  0  0  0  0  0  0  0  0
    5.7553   -8.4918   23.5000 C   0  0  0  0  0  0  0  0  0  0  0  0
    4.8843   -8.3359   22.4516 C   0  0  0  0  0  0  0  0  0  0  0  0
    4.3702   -9.5303   22.0644 O   0  0  0  0  0  0  0  0  0  0  0  0
    3.4611  -13.7068   25.6097 C   0  0  0  0  0  0  0  0  0  0  0  0
    3.9143  -14.6477   26.5343 C   0  0  0  0  0  0  0  0  0  0  0  0
    3.1643  -15.0566   27.5953 N   0  0  0  0  0  0  0  0  0  0  0  0
    1.9415  -14.4819   27.6635 C   0  0  0  0  0  0  0  0  0  0  0  0
    1.4888  -13.5700   26.7158 C   0  0  0  0  0  0  0  0  0  0  0  0
   -0.0820  -12.8834   26.7604 Cl  0  0  0  0  0  0  0  0  0  0  0  0
    2.2202  -13.1549   25.6728 N   0  0  0  0  0  0  0  0  0  0  0  0
  1  2  2  0
  2  3  1  0
  3  4  1  0
  4  5  1  0
  5  6  2  0
  6  7  1  0
  7  8  2  0
  8  9  1  0
  2 10  1  0
 10 11  2  0
 11 12  1  0
 12 13  2  0
 13 14  1  0
 14 15  1  0
 14 16  2  0
  9  5  1  0
 16 10  1  0
M  END
>  <inchikey>  (1613) 
GCGRUALTAVTMMW-UHFFFAOYSA-N

>  <tags>  (1613) 
fragmenstein_placed,CpKRS_FrAncestor_bulkdock_iter2

>  <ref_pdb>  (1613) 
x0654b

>  <energy_score>  (1613) 
-24.19732

>  <distance_score>  (1613) 
0.34607

>  <HIPPO Pose ID>  (1613) 
61302

>  <ref_mols>  (1613) 
x0492a

>  <smiles>  (1613) 
O=C(OCc1ccco1)c1cncc(Cl)n1

>  <HIPPO Compound ID>  (1613) 
204065

>  <alias>  (1613) 
GCGRUALTAVTMMW-UHFFFAOYSA-N-P34

>  <subsites>  (1613) 


>  <placement_batch>  (1613) 
CpKRS_FrAncestor_bulkdock_iter2

>  <name>  (1613) 
GCGRUALTAVTMMW-UHFFFAOYSA-N-P34

$$$$
YWCGHZWFOYQNDR-UHFFFAOYSA-N-P35
     RDKit          3D

 16 17  0  0  0  0  0  0  0  0999 V2000
    5.5317  -13.5966   24.5788 O   0  0  0  0  0  0  0  0  0  0  0  0
    4.3544  -13.2872   24.6738 C   0  0  0  0  0  0  0  0  0  0  0  0
    3.6820  -12.4551   23.8368 O   0  0  0  0  0  0  0  0  0  0  0  0
    4.3973  -12.0323   22.6718 C   0  0  0  0  0  0  0  0  0  0  0  0
    4.8421  -10.6344   22.8848 C   0  0  0  0  0  0  0  0  0  0  0  0
    5.7718  -10.0637   23.7239 C   0  0  0  0  0  0  0  0  0  0  0  0
    5.7939   -8.6835   23.4500 C   0  0  0  0  0  0  0  0  0  0  0  0
    4.8896   -8.4999   22.4348 C   0  0  0  0  0  0  0  0  0  0  0  0
    4.2938   -9.6699   22.0919 O   0  0  0  0  0  0  0  0  0  0  0  0
    3.4804  -13.7413   25.7811 C   0  0  0  0  0  0  0  0  0  0  0  0
    3.9677  -14.6757   26.6954 C   0  0  0  0  0  0  0  0  0  0  0  0
    3.3059  -15.0096   27.8395 N   0  0  0  0  0  0  0  0  0  0  0  0
    2.1252  -14.3778   27.9899 C   0  0  0  0  0  0  0  0  0  0  0  0
    1.3219  -14.6514   29.4721 Cl  0  0  0  0  0  0  0  0  0  0  0  0
    1.6114  -13.4837   27.0601 C   0  0  0  0  0  0  0  0  0  0  0  0
    2.2656  -13.1415   25.9309 N   0  0  0  0  0  0  0  0  0  0  0  0
  1  2  2  0
  2  3  1  0
  3  4  1  0
  4  5  1  0
  5  6  2  0
  6  7  1  0
  7  8  2  0
  8  9  1  0
  2 10  1  0
 10 11  2  0
 11 12  1  0
 12 13  2  0
 13 14  1  0
 13 15  1  0
 15 16  2  0
  9  5  1  0
 16 10  1  0
M  END
>  <inchikey>  (1614) 
YWCGHZWFOYQNDR-UHFFFAOYSA-N

>  <tags>  (1614) 
fragmenstein_placed,CpKRS_FrAncestor_bulkdock_iter2

>  <ref_pdb>  (1614) 
x0654b

>  <energy_score>  (1614) 
-23.651074

>  <distance_score>  (1614) 
0.36388

>  <HIPPO Pose ID>  (1614) 
61305

>  <ref_mols>  (1614) 
x0492b

>  <smiles>  (1614) 
O=C(OCc1ccco1)c1cnc(Cl)cn1

>  <HIPPO Compound ID>  (1614) 
201812

>  <alias>  (1614) 
YWCGHZWFOYQNDR-UHFFFAOYSA-N-P35

>  <subsites>  (1614) 


>  <placement_batch>  (1614) 
CpKRS_FrAncestor_bulkdock_iter2

>  <name>  (1614) 
YWCGHZWFOYQNDR-UHFFFAOYSA-N-P35

$$$$
TXBARSAIXIWPIW-UHFFFAOYSA-N-P35
     RDKit          3D

 15 16  0  0  0  0  0  0  0  0999 V2000
    5.4467  -13.5926   24.6765 O   0  0  0  0  0  0  0  0  0  0  0  0
    4.2700  -13.3135   24.8574 C   0  0  0  0  0  0  0  0  0  0  0  0
    3.5342  -12.4727   24.0809 O   0  0  0  0  0  0  0  0  0  0  0  0
    4.1501  -12.0751   22.8495 C   0  0  0  0  0  0  0  0  0  0  0  0
    4.6756  -10.6955   22.9973 C   0  0  0  0  0  0  0  0  0  0  0  0
    5.7002  -10.1564   23.7414 C   0  0  0  0  0  0  0  0  0  0  0  0
    5.7701   -8.7847   23.4309 C   0  0  0  0  0  0  0  0  0  0  0  0
    4.7981   -8.5754   22.4855 C   0  0  0  0  0  0  0  0  0  0  0  0
    4.1172   -9.7202   22.2235 O   0  0  0  0  0  0  0  0  0  0  0  0
    3.4702  -13.8333   25.9966 C   0  0  0  0  0  0  0  0  0  0  0  0
    4.0300  -14.7967   26.8317 C   0  0  0  0  0  0  0  0  0  0  0  0
    3.4314  -15.2185   27.9828 N   0  0  0  0  0  0  0  0  0  0  0  0
    2.2303  -14.6539   28.2255 C   0  0  0  0  0  0  0  0  0  0  0  0
    1.6551  -13.7207   27.3744 C   0  0  0  0  0  0  0  0  0  0  0  0
    2.2476  -13.2836   26.2447 N   0  0  0  0  0  0  0  0  0  0  0  0
  1  2  2  0
  2  3  1  0
  3  4  1  0
  4  5  1  0
  5  6  2  0
  6  7  1  0
  7  8  2  0
  8  9  1  0
  2 10  1  0
 10 11  2  0
 11 12  1  0
 12 13  2  0
 13 14  1  0
 14 15  2  0
  9  5  1  0
 15 10  1  0
M  END
>  <inchikey>  (1615) 
TXBARSAIXIWPIW-UHFFFAOYSA-N

>  <tags>  (1615) 
fragmenstein_placed,CpKRS_FrAncestor_bulkdock_iter2

>  <ref_pdb>  (1615) 
x0654b

>  <energy_score>  (1615) 
-18.760127

>  <distance_score>  (1615) 
0.359409

>  <HIPPO Pose ID>  (1615) 
61307

>  <ref_mols>  (1615) 
x0492b

>  <smiles>  (1615) 
O=C(OCc1ccco1)c1cnccn1

>  <HIPPO Compound ID>  (1615) 
203080

>  <alias>  (1615) 
TXBARSAIXIWPIW-UHFFFAOYSA-N-P35

>  <subsites>  (1615) 


>  <placement_batch>  (1615) 
CpKRS_FrAncestor_bulkdock_iter2

>  <name>  (1615) 
TXBARSAIXIWPIW-UHFFFAOYSA-N-P35

$$$$
VYFGLVMCPNLKLM-UHFFFAOYSA-N-P35
     RDKit          3D

 16 17  0  0  0  0  0  0  0  0999 V2000
    5.4652  -13.4653   24.6459 O   0  0  0  0  0  0  0  0  0  0  0  0
    4.2735  -13.2558   24.8035 C   0  0  0  0  0  0  0  0  0  0  0  0
    3.5250  -12.4578   23.9890 O   0  0  0  0  0  0  0  0  0  0  0  0
    4.1670  -12.0399   22.7772 C   0  0  0  0  0  0  0  0  0  0  0  0
    4.6932  -10.6650   22.9586 C   0  0  0  0  0  0  0  0  0  0  0  0
    5.7032  -10.1415   23.7334 C   0  0  0  0  0  0  0  0  0  0  0  0
    5.7866   -8.7663   23.4436 C   0  0  0  0  0  0  0  0  0  0  0  0
    4.8371   -8.5393   22.4796 C   0  0  0  0  0  0  0  0  0  0  0  0
    4.1554   -9.6763   22.1877 O   0  0  0  0  0  0  0  0  0  0  0  0
    3.4416  -13.7788   25.9258 C   0  0  0  0  0  0  0  0  0  0  0  0
    2.1986  -13.2181   26.0760 N   0  0  0  0  0  0  0  0  0  0  0  0
    1.5218  -13.5992   27.1766 C   0  0  0  0  0  0  0  0  0  0  0  0
    2.0272  -14.5006   28.0987 C   0  0  0  0  0  0  0  0  0  0  0  0
    3.2353  -15.0779   27.9596 N   0  0  0  0  0  0  0  0  0  0  0  0
    3.9286  -14.7096   26.8414 C   0  0  0  0  0  0  0  0  0  0  0  0
    5.4760  -15.4421   26.7992 Cl  0  0  0  0  0  0  0  0  0  0  0  0
  1  2  2  0
  2  3  1  0
  3  4  1  0
  4  5  1  0
  5  6  2  0
  6  7  1  0
  7  8  2  0
  8  9  1  0
  2 10  1  0
 10 11  2  0
 11 12  1  0
 12 13  2  0
 13 14  1  0
 14 15  2  0
 15 16  1  0
  9  5  1  0
 15 10  1  0
M  END
>  <inchikey>  (1616) 
VYFGLVMCPNLKLM-UHFFFAOYSA-N

>  <tags>  (1616) 
fragmenstein_placed,CpKRS_FrAncestor_bulkdock_iter2

>  <ref_pdb>  (1616) 
x0654b

>  <energy_score>  (1616) 
-27.235603

>  <distance_score>  (1616) 
0.380577

>  <HIPPO Pose ID>  (1616) 
61309

>  <ref_mols>  (1616) 
x0492b

>  <smiles>  (1616) 
O=C(OCc1ccco1)c1nccnc1Cl

>  <HIPPO Compound ID>  (1616) 
181325

>  <alias>  (1616) 
VYFGLVMCPNLKLM-UHFFFAOYSA-N-P35

>  <subsites>  (1616) 


>  <placement_batch>  (1616) 
CpKRS_FrAncestor_bulkdock_iter2

>  <name>  (1616) 
VYFGLVMCPNLKLM-UHFFFAOYSA-N-P35

$$$$
NTSJPRPGLLYRDJ-UHFFFAOYSA-N-P35
     RDKit          3D

 15 16  0  0  0  0  0  0  0  0999 V2000
    5.6168  -13.8052   24.9471 O   0  0  0  0  0  0  0  0  0  0  0  0
    4.4503  -13.4525   25.0435 C   0  0  0  0  0  0  0  0  0  0  0  0
    3.8163  -12.5833   24.2131 O   0  0  0  0  0  0  0  0  0  0  0  0
    4.5557  -12.2145   23.0434 C   0  0  0  0  0  0  0  0  0  0  0  0
    4.9608  -10.7719   23.1497 C   0  0  0  0  0  0  0  0  0  0  0  0
    5.6646  -10.2272   24.1247 N   0  0  0  0  0  0  0  0  0  0  0  0
    5.8997   -8.8943   23.8562 C   0  0  0  0  0  0  0  0  0  0  0  0
    5.3657   -8.4277   22.6792 C   0  0  0  0  0  0  0  0  0  0  0  0
    4.5519   -9.6897   21.8738 S   0  0  0  0  0  0  0  0  0  0  0  0
    3.5467  -13.9233   26.1225 C   0  0  0  0  0  0  0  0  0  0  0  0
    4.0097  -14.8947   27.0061 C   0  0  0  0  0  0  0  0  0  0  0  0
    3.3236  -15.2669   28.1241 N   0  0  0  0  0  0  0  0  0  0  0  0
    2.1363  -14.6447   28.2806 C   0  0  0  0  0  0  0  0  0  0  0  0
    1.6534  -13.7088   27.3755 C   0  0  0  0  0  0  0  0  0  0  0  0
    2.3335  -13.3208   26.2781 N   0  0  0  0  0  0  0  0  0  0  0  0
  1  2  2  0
  2  3  1  0
  3  4  1  0
  4  5  1  0
  5  6  2  0
  6  7  1  0
  7  8  2  0
  8  9  1  0
  2 10  1  0
 10 11  2  0
 11 12  1  0
 12 13  2  0
 13 14  1  0
 14 15  2  0
  9  5  1  0
 15 10  1  0
M  END
>  <inchikey>  (1617) 
NTSJPRPGLLYRDJ-UHFFFAOYSA-N

>  <tags>  (1617) 
fragmenstein_placed,CpKRS_FrAncestor_bulkdock_iter2

>  <ref_pdb>  (1617) 
x0654b

>  <energy_score>  (1617) 
-45.392846

>  <distance_score>  (1617) 
0.287853

>  <HIPPO Pose ID>  (1617) 
61311

>  <ref_mols>  (1617) 
x0492b

>  <smiles>  (1617) 
O=C(OCc1nccs1)c1cnccn1

>  <HIPPO Compound ID>  (1617) 
168353

>  <alias>  (1617) 
NTSJPRPGLLYRDJ-UHFFFAOYSA-N-P35

>  <subsites>  (1617) 


>  <placement_batch>  (1617) 
CpKRS_FrAncestor_bulkdock_iter2

>  <name>  (1617) 
NTSJPRPGLLYRDJ-UHFFFAOYSA-N-P35

$$$$
VLZOBMHSBRUQLQ-UHFFFAOYSA-N-P17
     RDKit          3D

 18 19  0  0  0  0  0  0  0  0999 V2000
    5.4508  -13.3248   25.0723 O   0  0  0  0  0  0  0  0  0  0  0  0
    4.3276  -13.4243   24.7711 C   0  0  0  0  0  0  0  0  0  0  0  0
    3.5758  -12.9117   23.5189 N   0  0  0  0  0  0  0  0  0  0  0  0
    4.0087  -12.1290   22.4778 N   0  0  0  0  0  0  0  0  0  0  0  0
    4.3573  -10.7958   22.8262 C   0  0  0  0  0  0  0  0  0  0  0  0
    4.0198  -10.1824   24.0405 C   0  0  0  0  0  0  0  0  0  0  0  0
    4.3738   -8.8546   24.3123 C   0  0  0  0  0  0  0  0  0  0  0  0
    5.0338   -8.0995   23.3520 C   0  0  0  0  0  0  0  0  0  0  0  0
    5.3159   -8.6693   22.1181 C   0  0  0  0  0  0  0  0  0  0  0  0
    4.9775   -9.9994   21.8581 C   0  0  0  0  0  0  0  0  0  0  0  0
    3.4059  -14.0591   25.7742 C   0  0  0  0  0  0  0  0  0  0  0  0
    2.0483  -13.7221   25.8728 C   0  0  0  0  0  0  0  0  0  0  0  0
    1.2799  -14.2582   26.9012 C   0  0  0  0  0  0  0  0  0  0  0  0
   -0.0190  -13.9377   26.9862 F   0  0  0  0  0  0  0  0  0  0  0  0
    1.8363  -15.0823   27.8646 C   0  0  0  0  0  0  0  0  0  0  0  0
    3.1821  -15.4005   27.7750 C   0  0  0  0  0  0  0  0  0  0  0  0
    3.7323  -16.1658   28.7280 F   0  0  0  0  0  0  0  0  0  0  0  0
    3.9693  -14.9071   26.7404 C   0  0  0  0  0  0  0  0  0  0  0  0
  1  2  2  0
  2  3  1  0
  3  4  1  0
  4  5  1  0
  5  6  2  0
  6  7  1  0
  7  8  2  0
  8  9  1  0
  9 10  2  0
  2 11  1  0
 11 12  2  0
 12 13  1  0
 13 14  1  0
 13 15  2  0
 15 16  1  0
 16 17  1  0
 16 18  2  0
 10  5  1  0
 18 11  1  0
M  END
>  <inchikey>  (1618) 
VLZOBMHSBRUQLQ-UHFFFAOYSA-N

>  <tags>  (1618) 
fragmenstein_placed,CpKRS_FrAncestor_bulkdock_iter2

>  <ref_pdb>  (1618) 
x0654b

>  <energy_score>  (1618) 
-13.141033

>  <distance_score>  (1618) 
0.465306

>  <HIPPO Pose ID>  (1618) 
61321

>  <ref_mols>  (1618) 
x0434a

>  <smiles>  (1618) 
O=C(NNc1ccccc1)c1cc(F)cc(F)c1

>  <HIPPO Compound ID>  (1618) 
364117

>  <alias>  (1618) 
VLZOBMHSBRUQLQ-UHFFFAOYSA-N-P17

>  <subsites>  (1618) 


>  <placement_batch>  (1618) 
CpKRS_FrAncestor_bulkdock_iter2

>  <name>  (1618) 
VLZOBMHSBRUQLQ-UHFFFAOYSA-N-P17

$$$$
ZKBYFGZNLFTCCV-UHFFFAOYSA-N-P58
     RDKit          3D

 17 18  0  0  0  0  0  0  0  0999 V2000
    5.4374  -13.8323   25.1803 O   0  0  0  0  0  0  0  0  0  0  0  0
    4.2884  -14.0044   25.0541 C   0  0  0  0  0  0  0  0  0  0  0  0
    3.3048  -13.4774   23.9747 N   0  0  0  0  0  0  0  0  0  0  0  0
    3.5392  -12.7461   22.8348 N   0  0  0  0  0  0  0  0  0  0  0  0
    4.0741  -11.4683   23.1183 C   0  0  0  0  0  0  0  0  0  0  0  0
    3.6838  -10.7366   24.2530 C   0  0  0  0  0  0  0  0  0  0  0  0
    4.2329   -9.4866   24.5324 C   0  0  0  0  0  0  0  0  0  0  0  0
    5.1621   -8.9401   23.6596 C   0  0  0  0  0  0  0  0  0  0  0  0
    5.9840   -7.3154   24.1269 Br  0  0  0  0  0  0  0  0  0  0  0  0
    5.4922   -9.5967   22.4789 C   0  0  0  0  0  0  0  0  0  0  0  0
    4.9386  -10.8532   22.2094 C   0  0  0  0  0  0  0  0  0  0  0  0
    3.4969  -14.7587   26.0831 C   0  0  0  0  0  0  0  0  0  0  0  0
    4.1062  -15.7418   26.7667 C   0  0  0  0  0  0  0  0  0  0  0  0
    3.4639  -16.4332   27.9282 C   0  0  0  0  0  0  0  0  0  0  0  0
    2.0954  -16.0678   28.1361 O   0  0  0  0  0  0  0  0  0  0  0  0
    1.8774  -14.6721   27.9637 C   0  0  0  0  0  0  0  0  0  0  0  0
    2.1424  -14.2792   26.5131 C   0  0  0  0  0  0  0  0  0  0  0  0
  1  2  2  0
  2  3  1  0
  3  4  1  0
  4  5  1  0
  5  6  2  0
  6  7  1  0
  7  8  2  0
  8  9  1  0
  8 10  1  0
 10 11  2  0
  2 12  1  0
 12 13  2  0
 13 14  1  0
 14 15  1  0
 15 16  1  0
 16 17  1  0
 11  5  1  0
 17 12  1  0
M  END
>  <inchikey>  (1619) 
ZKBYFGZNLFTCCV-UHFFFAOYSA-N

>  <tags>  (1619) 
fragmenstein_placed,CpKRS_FrAncestor_bulkdock_iter2

>  <ref_pdb>  (1619) 
x0654b

>  <energy_score>  (1619) 
-0.45942

>  <distance_score>  (1619) 
0.353633

>  <HIPPO Pose ID>  (1619) 
61324

>  <ref_mols>  (1619) 
x0654c

>  <smiles>  (1619) 
O=C(NNc1ccc(Br)cc1)C1=CCOCC1

>  <HIPPO Compound ID>  (1619) 
165209

>  <alias>  (1619) 
ZKBYFGZNLFTCCV-UHFFFAOYSA-N-P58

>  <subsites>  (1619) 


>  <placement_batch>  (1619) 
CpKRS_FrAncestor_bulkdock_iter2

>  <name>  (1619) 
ZKBYFGZNLFTCCV-UHFFFAOYSA-N-P58

$$$$
PLQGSGAGDBRLRE-UHFFFAOYSA-N-P58
     RDKit          3D

 20 21  0  0  0  0  0  0  0  0999 V2000
    5.4775  -13.8739   25.1707 O   0  0  0  0  0  0  0  0  0  0  0  0
    4.3209  -14.0106   25.0718 C   0  0  0  0  0  0  0  0  0  0  0  0
    3.3406  -13.5243   23.9694 N   0  0  0  0  0  0  0  0  0  0  0  0
    3.5581  -12.7304   22.8701 N   0  0  0  0  0  0  0  0  0  0  0  0
    4.1322  -11.4735   23.1588 C   0  0  0  0  0  0  0  0  0  0  0  0
    4.9496  -10.8632   22.2067 C   0  0  0  0  0  0  0  0  0  0  0  0
    5.5090   -9.6032   22.4349 C   0  0  0  0  0  0  0  0  0  0  0  0
    5.2422   -8.9060   23.6213 C   0  0  0  0  0  0  0  0  0  0  0  0
    5.8771   -7.5638   23.8548 C   0  0  0  0  0  0  0  0  0  0  0  0
    7.2241   -7.6171   23.9809 F   0  0  0  0  0  0  0  0  0  0  0  0
    5.6255   -6.7298   22.8085 F   0  0  0  0  0  0  0  0  0  0  0  0
    5.4333   -6.9032   24.9540 F   0  0  0  0  0  0  0  0  0  0  0  0
    4.3709   -9.4771   24.5499 C   0  0  0  0  0  0  0  0  0  0  0  0
    3.8159  -10.7405   24.3123 C   0  0  0  0  0  0  0  0  0  0  0  0
    3.5249  -14.6971   26.1467 C   0  0  0  0  0  0  0  0  0  0  0  0
    4.1227  -15.6831   26.8380 C   0  0  0  0  0  0  0  0  0  0  0  0
    3.4676  -16.3733   27.9924 C   0  0  0  0  0  0  0  0  0  0  0  0
    2.0880  -16.0291   28.1574 O   0  0  0  0  0  0  0  0  0  0  0  0
    1.8627  -14.6329   27.9967 C   0  0  0  0  0  0  0  0  0  0  0  0
    2.1671  -14.2160   26.5598 C   0  0  0  0  0  0  0  0  0  0  0  0
  1  2  2  0
  2  3  1  0
  3  4  1  0
  4  5  1  0
  5  6  2  0
  6  7  1  0
  7  8  2  0
  8  9  1  0
  9 10  1  0
  9 11  1  0
  9 12  1  0
  8 13  1  0
 13 14  2  0
  2 15  1  0
 15 16  2  0
 16 17  1  0
 17 18  1  0
 18 19  1  0
 19 20  1  0
 14  5  1  0
 20 15  1  0
M  END
>  <inchikey>  (1620) 
PLQGSGAGDBRLRE-UHFFFAOYSA-N

>  <tags>  (1620) 
fragmenstein_placed,CpKRS_FrAncestor_bulkdock_iter2

>  <ref_pdb>  (1620) 
x0654b

>  <energy_score>  (1620) 
-26.757724

>  <distance_score>  (1620) 
0.44001

>  <HIPPO Pose ID>  (1620) 
61327

>  <ref_mols>  (1620) 
x0654c

>  <smiles>  (1620) 
O=C(NNc1ccc(C(F)(F)F)cc1)C1=CCOCC1

>  <HIPPO Compound ID>  (1620) 
453173

>  <alias>  (1620) 
PLQGSGAGDBRLRE-UHFFFAOYSA-N-P58

>  <subsites>  (1620) 


>  <placement_batch>  (1620) 
CpKRS_FrAncestor_bulkdock_iter2

>  <name>  (1620) 
PLQGSGAGDBRLRE-UHFFFAOYSA-N-P58

$$$$
OMGSGWMZPFUHKW-UHFFFAOYSA-N-P58
     RDKit          3D

 17 18  0  0  0  0  0  0  0  0999 V2000
    5.5155  -13.8225   25.1510 O   0  0  0  0  0  0  0  0  0  0  0  0
    4.3661  -13.9887   25.0192 C   0  0  0  0  0  0  0  0  0  0  0  0
    3.4047  -13.5232   23.8916 N   0  0  0  0  0  0  0  0  0  0  0  0
    3.6321  -12.7191   22.8013 N   0  0  0  0  0  0  0  0  0  0  0  0
    4.1671  -11.4491   23.1068 C   0  0  0  0  0  0  0  0  0  0  0  0
    4.9613  -10.7933   22.1605 C   0  0  0  0  0  0  0  0  0  0  0  0
    5.4936   -9.5243   22.4117 C   0  0  0  0  0  0  0  0  0  0  0  0
    5.2122   -8.8874   23.6140 C   0  0  0  0  0  0  0  0  0  0  0  0
    5.9078   -7.3631   23.9778 Cl  0  0  0  0  0  0  0  0  0  0  0  0
    4.3602   -9.4808   24.5358 C   0  0  0  0  0  0  0  0  0  0  0  0
    3.8325  -10.7485   24.2755 C   0  0  0  0  0  0  0  0  0  0  0  0
    3.5540  -14.6920   26.0701 C   0  0  0  0  0  0  0  0  0  0  0  0
    4.1438  -15.6673   26.7828 C   0  0  0  0  0  0  0  0  0  0  0  0
    3.4690  -16.3494   27.9317 C   0  0  0  0  0  0  0  0  0  0  0  0
    2.0871  -16.0027   28.0739 O   0  0  0  0  0  0  0  0  0  0  0  0
    1.8639  -14.6082   27.8907 C   0  0  0  0  0  0  0  0  0  0  0  0
    2.1858  -14.2125   26.4514 C   0  0  0  0  0  0  0  0  0  0  0  0
  1  2  2  0
  2  3  1  0
  3  4  1  0
  4  5  1  0
  5  6  2  0
  6  7  1  0
  7  8  2  0
  8  9  1  0
  8 10  1  0
 10 11  2  0
  2 12  1  0
 12 13  2  0
 13 14  1  0
 14 15  1  0
 15 16  1  0
 16 17  1  0
 11  5  1  0
 17 12  1  0
M  END
>  <inchikey>  (1621) 
OMGSGWMZPFUHKW-UHFFFAOYSA-N

>  <tags>  (1621) 
fragmenstein_placed,CpKRS_FrAncestor_bulkdock_iter2

>  <ref_pdb>  (1621) 
x0654b

>  <energy_score>  (1621) 
-7.169673

>  <distance_score>  (1621) 
0.342995

>  <HIPPO Pose ID>  (1621) 
61330

>  <ref_mols>  (1621) 
x0654c

>  <smiles>  (1621) 
O=C(NNc1ccc(Cl)cc1)C1=CCOCC1

>  <HIPPO Compound ID>  (1621) 
225464

>  <alias>  (1621) 
OMGSGWMZPFUHKW-UHFFFAOYSA-N-P58

>  <subsites>  (1621) 


>  <placement_batch>  (1621) 
CpKRS_FrAncestor_bulkdock_iter2

>  <name>  (1621) 
OMGSGWMZPFUHKW-UHFFFAOYSA-N-P58

$$$$
KYQDZZZGYZMEQG-UHFFFAOYSA-N-P13
     RDKit          3D

 14 15  0  0  0  0  0  0  0  0999 V2000
    5.3258  -13.3741   24.5096 O   0  0  0  0  0  0  0  0  0  0  0  0
    4.2175  -12.9039   24.7448 C   0  0  0  0  0  0  0  0  0  0  0  0
    3.8111  -11.6636   24.3301 O   0  0  0  0  0  0  0  0  0  0  0  0
    4.8371  -10.8509   23.7666 C   0  0  0  0  0  0  0  0  0  0  0  0
    4.4734   -9.3787   23.9195 C   0  0  0  0  0  0  0  0  0  0  0  0
    5.3843   -8.7009   22.9125 C   0  0  0  0  0  0  0  0  0  0  0  0
    5.4505   -9.6723   21.7378 C   0  0  0  0  0  0  0  0  0  0  0  0
    4.9499  -11.0200   22.2572 C   0  0  0  0  0  0  0  0  0  0  0  0
    3.2299  -13.5836   25.5972 C   0  0  0  0  0  0  0  0  0  0  0  0
    3.5249  -14.6534   26.4950 C   0  0  0  0  0  0  0  0  0  0  0  0
    2.3823  -14.8047   27.2223 C   0  0  0  0  0  0  0  0  0  0  0  0
    2.0134  -15.6986   28.6111 Cl  0  0  0  0  0  0  0  0  0  0  0  0
    1.4525  -13.9720   26.6981 N   0  0  0  0  0  0  0  0  0  0  0  0
    1.9319  -13.2109   25.6977 N   0  0  0  0  0  0  0  0  0  0  0  0
  1  2  2  0
  2  3  1  0
  3  4  1  0
  4  5  1  0
  5  6  1  0
  6  7  1  0
  7  8  1  0
  2  9  1  0
  9 10  1  0
 10 11  2  0
 11 12  1  0
 11 13  1  0
 13 14  1  0
  8  4  1  0
 14  9  2  0
M  END
>  <inchikey>  (1622) 
KYQDZZZGYZMEQG-UHFFFAOYSA-N

>  <tags>  (1622) 
fragmenstein_placed,CpKRS_FrAncestor_bulkdock_iter2

>  <ref_pdb>  (1622) 
x0654b

>  <energy_score>  (1622) 
-22.264403

>  <distance_score>  (1622) 
0.368092

>  <HIPPO Pose ID>  (1622) 
61353

>  <ref_mols>  (1622) 
x0421c

>  <smiles>  (1622) 
O=C(OC1CCCC1)c1cc(Cl)[nH]n1

>  <HIPPO Compound ID>  (1622) 
387015

>  <alias>  (1622) 
KYQDZZZGYZMEQG-UHFFFAOYSA-N-P13

>  <subsites>  (1622) 


>  <placement_batch>  (1622) 
CpKRS_FrAncestor_bulkdock_iter2

>  <name>  (1622) 
KYQDZZZGYZMEQG-UHFFFAOYSA-N-P13

$$$$
AZNUUMDCXFKFJJ-UHFFFAOYSA-N-P11
     RDKit          3D

 14 15  0  0  0  0  0  0  0  0999 V2000
    5.4685  -13.3909   24.8349 O   0  0  0  0  0  0  0  0  0  0  0  0
    4.2992  -13.0404   24.9703 C   0  0  0  0  0  0  0  0  0  0  0  0
    3.8063  -11.8650   24.4561 O   0  0  0  0  0  0  0  0  0  0  0  0
    4.7689  -11.0245   23.8239 C   0  0  0  0  0  0  0  0  0  0  0  0
    4.8722  -11.2946   22.3267 C   0  0  0  0  0  0  0  0  0  0  0  0
    5.2969   -9.9632   21.7068 C   0  0  0  0  0  0  0  0  0  0  0  0
    5.1518   -8.9091   22.7995 C   0  0  0  0  0  0  0  0  0  0  0  0
    4.3053   -9.5731   23.8709 C   0  0  0  0  0  0  0  0  0  0  0  0
    3.3119  -13.7919   25.7485 C   0  0  0  0  0  0  0  0  0  0  0  0
    2.0009  -13.4550   25.8430 N   0  0  0  0  0  0  0  0  0  0  0  0
    1.4785  -14.4107   26.6345 N   0  0  0  0  0  0  0  0  0  0  0  0
    2.3836  -15.3122   27.1004 C   0  0  0  0  0  0  0  0  0  0  0  0
    3.5703  -14.9314   26.5405 C   0  0  0  0  0  0  0  0  0  0  0  0
    4.7464  -15.5388   26.7327 F   0  0  0  0  0  0  0  0  0  0  0  0
  1  2  2  0
  2  3  1  0
  3  4  1  0
  4  5  1  0
  5  6  1  0
  6  7  1  0
  7  8  1  0
  2  9  1  0
  9 10  2  0
 10 11  1  0
 11 12  1  0
 12 13  2  0
 13 14  1  0
  8  4  1  0
 13  9  1  0
M  END
>  <inchikey>  (1623) 
AZNUUMDCXFKFJJ-UHFFFAOYSA-N

>  <tags>  (1623) 
fragmenstein_placed,CpKRS_FrAncestor_bulkdock_iter2

>  <ref_pdb>  (1623) 
x0654b

>  <energy_score>  (1623) 
-20.748354

>  <distance_score>  (1623) 
0.418045

>  <HIPPO Pose ID>  (1623) 
61355

>  <ref_mols>  (1623) 
x0421a

>  <smiles>  (1623) 
O=C(OC1CCCC1)c1n[nH]cc1F

>  <HIPPO Compound ID>  (1623) 
386884

>  <alias>  (1623) 
AZNUUMDCXFKFJJ-UHFFFAOYSA-N-P11

>  <subsites>  (1623) 


>  <placement_batch>  (1623) 
CpKRS_FrAncestor_bulkdock_iter2

>  <name>  (1623) 
AZNUUMDCXFKFJJ-UHFFFAOYSA-N-P11

$$$$
AYKNXLOTDBWLSN-UHFFFAOYSA-N-P35
     RDKit          3D

 16 17  0  0  0  0  0  0  0  0999 V2000
    5.0868  -14.0552   25.1829 O   0  0  0  0  0  0  0  0  0  0  0  0
    3.9262  -13.7713   25.4380 C   0  0  0  0  0  0  0  0  0  0  0  0
    3.1055  -12.9718   24.7111 O   0  0  0  0  0  0  0  0  0  0  0  0
    3.5978  -12.6288   23.4285 C   0  0  0  0  0  0  0  0  0  0  0  0
    4.2352  -11.3072   23.5081 C   0  0  0  0  0  0  0  0  0  0  0  0
    5.4478  -10.9978   24.0741 C   0  0  0  0  0  0  0  0  0  0  0  0
    5.8586   -9.6783   23.7981 C   0  0  0  0  0  0  0  0  0  0  0  0
    4.9625   -9.1296   22.9345 C   0  0  0  0  0  0  0  0  0  0  0  0
    5.3472   -7.6753   21.8688 Br  0  0  0  0  0  0  0  0  0  0  0  0
    3.5236   -9.9647   22.7695 S   0  0  0  0  0  0  0  0  0  0  0  0
    3.2017  -14.2212   26.6378 C   0  0  0  0  0  0  0  0  0  0  0  0
    3.7812  -15.1864   27.4470 C   0  0  0  0  0  0  0  0  0  0  0  0
    3.2593  -15.5233   28.6578 N   0  0  0  0  0  0  0  0  0  0  0  0
    2.1266  -14.8595   28.9837 C   0  0  0  0  0  0  0  0  0  0  0  0
    1.5340  -13.9240   28.1574 C   0  0  0  0  0  0  0  0  0  0  0  0
    2.0406  -13.5817   26.9654 N   0  0  0  0  0  0  0  0  0  0  0  0
  1  2  2  0
  2  3  1  0
  3  4  1  0
  4  5  1  0
  5  6  2  0
  6  7  1  0
  7  8  2  0
  8  9  1  0
  8 10  1  0
  2 11  1  0
 11 12  2  0
 12 13  1  0
 13 14  2  0
 14 15  1  0
 15 16  2  0
 10  5  1  0
 16 11  1  0
M  END
>  <inchikey>  (1624) 
AYKNXLOTDBWLSN-UHFFFAOYSA-N

>  <tags>  (1624) 
fragmenstein_placed,CpKRS_FrAncestor_bulkdock_iter2

>  <ref_pdb>  (1624) 
x0654b

>  <energy_score>  (1624) 
-15.834382

>  <distance_score>  (1624) 
0.995578

>  <HIPPO Pose ID>  (1624) 
61384

>  <ref_mols>  (1624) 
x0492b

>  <smiles>  (1624) 
O=C(OCc1ccc(Br)s1)c1cnccn1

>  <HIPPO Compound ID>  (1624) 
191955

>  <alias>  (1624) 
AYKNXLOTDBWLSN-UHFFFAOYSA-N-P35

>  <subsites>  (1624) 


>  <placement_batch>  (1624) 
CpKRS_FrAncestor_bulkdock_iter2

>  <name>  (1624) 
AYKNXLOTDBWLSN-UHFFFAOYSA-N-P35

$$$$
XTCZXUQSDZPMAB-UHFFFAOYSA-N-P59
     RDKit          3D

 16 18  0  0  0  0  0  0  0  0999 V2000
    2.6127  -19.6322   23.4036 Br  0  0  0  0  0  0  0  0  0  0  0  0
    3.5350  -20.7228   22.1957 C   0  0  0  0  0  0  0  0  0  0  0  0
    4.7062  -20.2457   21.5937 C   0  0  0  0  0  0  0  0  0  0  0  0
    5.3902  -21.0264   20.6831 C   0  0  0  0  0  0  0  0  0  0  0  0
    4.8429  -22.2580   20.3863 C   0  0  0  0  0  0  0  0  0  0  0  0
    3.6497  -22.7318   20.9535 C   0  0  0  0  0  0  0  0  0  0  0  0
    2.9899  -21.9665   21.8805 C   0  0  0  0  0  0  0  0  0  0  0  0
    3.3445  -24.1493   20.5548 C   0  0  1  0  0  0  0  0  0  0  0  0
    2.2785  -24.3924   19.5827 N   0  0  0  0  0  0  0  0  0  0  0  0
    2.4895  -23.8608   18.2248 C   0  0  0  0  0  0  0  0  0  0  0  0
    1.5667  -24.5324   17.2026 C   0  0  0  0  0  0  0  0  0  0  0  0
    1.8936  -25.9223   17.0259 O   0  0  0  0  0  0  0  0  0  0  0  0
    2.3381  -26.5508   18.2368 C   0  0  0  0  0  0  0  0  0  0  0  0
    1.9026  -25.8248   19.5233 C   0  0  0  0  0  0  0  0  0  0  0  0
    4.7342  -24.5307   20.0763 C   0  0  0  0  0  0  0  0  0  0  0  0
    5.4166  -23.2754   19.4870 C   0  0  0  0  0  0  0  0  0  0  0  0
  1  2  1  0
  2  3  2  0
  3  4  1  0
  4  5  2  0
  5  6  1  0
  6  7  2  0
  6  8  1  0
  8  9  1  6
  9 10  1  0
 10 11  1  0
 11 12  1  0
 12 13  1  0
 13 14  1  0
  8 15  1  0
 15 16  1  0
  7  2  1  0
 14  9  1  0
 16  5  1  0
M  END
>  <inchikey>  (1625) 
XTCZXUQSDZPMAB-UHFFFAOYSA-N

>  <tags>  (1625) 
fragmenstein_placed,CpKRS_FrAncestor_bulkdock_iter2

>  <ref_pdb>  (1625) 
x0654b

>  <energy_score>  (1625) 
-14.990684

>  <distance_score>  (1625) 
0.905406

>  <HIPPO Pose ID>  (1625) 
61387

>  <ref_mols>  (1625) 
x0675a

>  <smiles>  (1625) 
Brc1ccc2c(c1)C(N1CCOCC1)CC2

>  <HIPPO Compound ID>  (1625) 
453178

>  <alias>  (1625) 
XTCZXUQSDZPMAB-UHFFFAOYSA-N-P59

>  <subsites>  (1625) 


>  <placement_batch>  (1625) 
CpKRS_FrAncestor_bulkdock_iter2

>  <name>  (1625) 
XTCZXUQSDZPMAB-UHFFFAOYSA-N-P59

$$$$
RSGNEPITPKPQTI-UHFFFAOYSA-N-P60
     RDKit          3D

 15 17  0  0  0  0  0  0  0  0999 V2000
   -3.8823  -25.5010   27.2953 Br  0  0  0  0  0  0  0  0  0  0  0  0
   -2.7557  -25.6098   25.7875 C   0  0  0  0  0  0  0  0  0  0  0  0
   -2.0483  -24.4919   25.3622 C   0  0  0  0  0  0  0  0  0  0  0  0
   -1.2224  -24.5858   24.2437 C   0  0  0  0  0  0  0  0  0  0  0  0
   -1.0881  -25.7983   23.5684 C   0  0  0  0  0  0  0  0  0  0  0  0
   -1.8131  -26.9230   23.9836 C   0  0  0  0  0  0  0  0  0  0  0  0
   -1.6826  -28.2338   23.2454 C   0  0  0  0  0  0  0  0  0  0  0  0
   -0.4954  -28.9879   23.6687 N   0  0  0  0  0  0  0  0  0  0  0  0
   -0.4240  -30.2788   22.9360 C   0  0  0  0  0  0  0  0  0  0  0  0
   -1.0019  -30.9857   24.1536 C   0  0  0  0  0  0  0  0  0  0  0  0
   -2.4304  -31.4632   24.0359 C   0  0  0  0  0  0  0  0  0  0  0  0
   -1.7919  -32.8522   24.1688 C   0  0  0  0  0  0  0  0  0  0  0  0
   -0.5242  -32.2719   24.5710 O   0  0  0  0  0  0  0  0  0  0  0  0
   -0.7367  -29.7225   24.9396 C   0  0  0  0  0  0  0  0  0  0  0  0
   -2.6521  -26.8168   25.1015 C   0  0  0  0  0  0  0  0  0  0  0  0
  1  2  1  0
  2  3  2  0
  3  4  1  0
  4  5  2  0
  5  6  1  0
  6  7  1  0
  7  8  1  0
  8  9  1  0
  9 10  1  0
 10 11  1  0
 11 12  1  0
 12 13  1  0
 10 14  1  0
  6 15  2  0
 15  2  1  0
 14  8  1  0
 13 10  1  0
M  END
>  <inchikey>  (1626) 
RSGNEPITPKPQTI-UHFFFAOYSA-N

>  <tags>  (1626) 
fragmenstein_placed,CpKRS_FrAncestor_bulkdock_iter2

>  <ref_pdb>  (1626) 
x0654b

>  <energy_score>  (1626) 
-26.094844

>  <distance_score>  (1626) 
0.789039

>  <HIPPO Pose ID>  (1626) 
61390

>  <ref_mols>  (1626) 
x0675b

>  <smiles>  (1626) 
Brc1cccc(CN2CC3(CCO3)C2)c1

>  <HIPPO Compound ID>  (1626) 
453179

>  <alias>  (1626) 
RSGNEPITPKPQTI-UHFFFAOYSA-N-P60

>  <subsites>  (1626) 


>  <placement_batch>  (1626) 
CpKRS_FrAncestor_bulkdock_iter2

>  <name>  (1626) 
RSGNEPITPKPQTI-UHFFFAOYSA-N-P60

$$$$
OVBKNNNDWWVJOK-UHFFFAOYSA-N-P60
     RDKit          3D

 16 18  0  0  0  0  0  0  0  0999 V2000
   -3.8845  -25.1783   27.0539 Br  0  0  0  0  0  0  0  0  0  0  0  0
   -2.7343  -25.5374   25.6057 C   0  0  0  0  0  0  0  0  0  0  0  0
   -1.8963  -24.5510   25.1023 C   0  0  0  0  0  0  0  0  0  0  0  0
   -1.0543  -24.8457   24.0291 C   0  0  0  0  0  0  0  0  0  0  0  0
   -1.0352  -26.1270   23.4761 C   0  0  0  0  0  0  0  0  0  0  0  0
   -1.8946  -27.1150   23.9671 C   0  0  0  0  0  0  0  0  0  0  0  0
   -1.9335  -28.4998   23.3630 C   0  0  0  0  0  0  0  0  0  0  0  0
   -0.8569  -29.3939   23.8242 N   0  0  0  0  0  0  0  0  0  0  0  0
   -0.9544  -29.6760   25.2846 C   0  0  0  0  0  0  0  0  0  0  0  0
   -1.8330  -30.8970   24.9863 C   0  0  0  0  0  0  0  0  0  0  0  0
   -1.1884  -30.8316   23.5779 C   0  0  1  0  0  0  0  0  0  0  0  0
   -2.0354  -31.2153   22.3883 C   0  0  0  0  0  0  0  0  0  0  0  0
   -1.8367  -32.7244   22.3760 C   0  0  0  0  0  0  0  0  0  0  0  0
   -0.5576  -33.0002   22.9736 O   0  0  0  0  0  0  0  0  0  0  0  0
    0.0091  -31.7566   23.4161 C   0  0  0  0  0  0  0  0  0  0  0  0
   -2.7489  -26.8051   25.0365 C   0  0  0  0  0  0  0  0  0  0  0  0
  1  2  1  0
  2  3  2  0
  3  4  1  0
  4  5  2  0
  5  6  1  0
  6  7  1  0
  7  8  1  0
  8  9  1  0
  9 10  1  0
 11 10  1  1
 11 12  1  0
 12 13  1  0
 13 14  1  0
 14 15  1  0
  6 16  2  0
 16  2  1  0
 11  8  1  0
 15 11  1  0
M  END
>  <inchikey>  (1627) 
OVBKNNNDWWVJOK-UHFFFAOYSA-N

>  <tags>  (1627) 
fragmenstein_placed,CpKRS_FrAncestor_bulkdock_iter2

>  <ref_pdb>  (1627) 
x0654b

>  <energy_score>  (1627) 
-20.656151

>  <distance_score>  (1627) 
0.791603

>  <HIPPO Pose ID>  (1627) 
61392

>  <ref_mols>  (1627) 
x0675b

>  <smiles>  (1627) 
Brc1cccc(CN2CCC23CCOC3)c1

>  <HIPPO Compound ID>  (1627) 
453180

>  <alias>  (1627) 
OVBKNNNDWWVJOK-UHFFFAOYSA-N-P60

>  <subsites>  (1627) 


>  <placement_batch>  (1627) 
CpKRS_FrAncestor_bulkdock_iter2

>  <name>  (1627) 
OVBKNNNDWWVJOK-UHFFFAOYSA-N-P60

$$$$
VWOJMBDYZNRUBN-UHFFFAOYSA-N-P59
     RDKit          3D

 15 17  0  0  0  0  0  0  0  0999 V2000
    2.8913  -19.9211   23.1668 Br  0  0  0  0  0  0  0  0  0  0  0  0
    3.9461  -20.9294   21.9856 C   0  0  0  0  0  0  0  0  0  0  0  0
    5.1363  -20.3974   21.5047 C   0  0  0  0  0  0  0  0  0  0  0  0
    5.9593  -21.1538   20.6811 C   0  0  0  0  0  0  0  0  0  0  0  0
    5.5616  -22.4330   20.3026 C   0  0  0  0  0  0  0  0  0  0  0  0
    4.3407  -22.9654   20.7514 C   0  0  0  0  0  0  0  0  0  0  0  0
    3.8169  -24.2839   20.2370 C   0  0  0  0  0  0  0  0  0  0  0  0
    2.9867  -24.0435   19.0602 N   0  0  0  0  0  0  0  0  0  0  0  0
    3.8360  -23.7470   17.8681 C   0  0  0  0  0  0  0  0  0  0  0  0
    2.9395  -24.6840   17.0331 C   0  0  0  0  0  0  0  0  0  0  0  0
    2.5017  -25.2121   18.3724 C   0  0  0  0  0  0  0  0  0  0  0  0
    2.8139  -26.6225   18.7559 C   0  0  0  0  0  0  0  0  0  0  0  0
    1.4482  -26.9936   18.3532 O   0  0  0  0  0  0  0  0  0  0  0  0
    1.0536  -25.5820   18.5163 C   0  0  0  0  0  0  0  0  0  0  0  0
    3.5355  -22.2015   21.6059 C   0  0  0  0  0  0  0  0  0  0  0  0
  1  2  1  0
  2  3  2  0
  3  4  1  0
  4  5  2  0
  5  6  1  0
  6  7  1  0
  7  8  1  0
  8  9  1  0
  9 10  1  0
 10 11  1  0
 11 12  1  0
 12 13  1  0
 13 14  1  0
  6 15  2  0
 15  2  1  0
 11  8  1  0
 14 11  1  0
M  END
>  <inchikey>  (1628) 
VWOJMBDYZNRUBN-UHFFFAOYSA-N

>  <tags>  (1628) 
fragmenstein_placed,CpKRS_FrAncestor_bulkdock_iter2

>  <ref_pdb>  (1628) 
x0654b

>  <energy_score>  (1628) 
-21.140612

>  <distance_score>  (1628) 
0.824827

>  <HIPPO Pose ID>  (1628) 
61393

>  <ref_mols>  (1628) 
x0675a

>  <smiles>  (1628) 
Brc1cccc(CN2CCC23COC3)c1

>  <HIPPO Compound ID>  (1628) 
453181

>  <alias>  (1628) 
VWOJMBDYZNRUBN-UHFFFAOYSA-N-P59

>  <subsites>  (1628) 


>  <placement_batch>  (1628) 
CpKRS_FrAncestor_bulkdock_iter2

>  <name>  (1628) 
VWOJMBDYZNRUBN-UHFFFAOYSA-N-P59

$$$$
JKYIGDCGVQZSSF-UHFFFAOYSA-N-P60
     RDKit          3D

 16 18  0  0  0  0  0  0  0  0999 V2000
   -3.8558  -25.4546   27.1822 Br  0  0  0  0  0  0  0  0  0  0  0  0
   -2.7202  -25.6505   25.6886 C   0  0  0  0  0  0  0  0  0  0  0  0
   -1.9696  -24.5710   25.2378 C   0  0  0  0  0  0  0  0  0  0  0  0
   -1.1292  -24.7310   24.1375 C   0  0  0  0  0  0  0  0  0  0  0  0
   -1.0206  -25.9712   23.5082 C   0  0  0  0  0  0  0  0  0  0  0  0
   -1.7904  -27.0566   23.9456 C   0  0  0  0  0  0  0  0  0  0  0  0
   -1.6935  -28.3964   23.2511 C   0  0  0  0  0  0  0  0  0  0  0  0
   -0.5696  -29.2236   23.7210 N   0  0  0  0  0  0  0  0  0  0  0  0
   -0.7233  -29.6862   25.1130 C   0  0  0  0  0  0  0  0  0  0  0  0
   -1.7229  -30.8335   25.0659 C   0  0  0  0  0  0  0  0  0  0  0  0
   -1.3904  -31.4937   23.7369 C   0  0  2  0  0  0  0  0  0  0  0  0
   -2.5312  -32.2014   22.9822 C   0  0  0  0  0  0  0  0  0  0  0  0
   -1.6075  -33.4149   23.0080 C   0  0  0  0  0  0  0  0  0  0  0  0
   -0.7173  -32.7650   23.9457 O   0  0  0  0  0  0  0  0  0  0  0  0
   -0.5142  -30.4965   22.9623 C   0  0  0  0  0  0  0  0  0  0  0  0
   -2.6486  -26.8821   25.0418 C   0  0  0  0  0  0  0  0  0  0  0  0
  1  2  1  0
  2  3  2  0
  3  4  1  0
  4  5  2  0
  5  6  1  0
  6  7  1  0
  7  8  1  0
  8  9  1  0
  9 10  1  0
 11 10  1  1
 11 12  1  0
 12 13  1  0
 13 14  1  0
 11 15  1  0
  6 16  2  0
 16  2  1  0
 15  8  1  0
 14 11  1  0
M  END
>  <inchikey>  (1629) 
JKYIGDCGVQZSSF-UHFFFAOYSA-N

>  <tags>  (1629) 
fragmenstein_placed,CpKRS_FrAncestor_bulkdock_iter2

>  <ref_pdb>  (1629) 
x0654b

>  <energy_score>  (1629) 
-24.526575

>  <distance_score>  (1629) 
0.565863

>  <HIPPO Pose ID>  (1629) 
61396

>  <ref_mols>  (1629) 
x0675b

>  <smiles>  (1629) 
Brc1cccc(CN2CCC3(CCO3)C2)c1

>  <HIPPO Compound ID>  (1629) 
453182

>  <alias>  (1629) 
JKYIGDCGVQZSSF-UHFFFAOYSA-N-P60

>  <subsites>  (1629) 


>  <placement_batch>  (1629) 
CpKRS_FrAncestor_bulkdock_iter2

>  <name>  (1629) 
JKYIGDCGVQZSSF-UHFFFAOYSA-N-P60

$$$$
LEZSIBRCBVVART-UHFFFAOYSA-N-P60
     RDKit          3D

 15 17  0  0  0  0  0  0  0  0999 V2000
   -2.7737  -24.4161   26.3856 Br  0  0  0  0  0  0  0  0  0  0  0  0
   -1.9881  -25.3979   24.9823 C   0  0  0  0  0  0  0  0  0  0  0  0
   -1.0579  -24.9363   24.0835 C   0  0  0  0  0  0  0  0  0  0  0  0
   -0.7465  -26.0319   23.2408 C   0  0  0  0  0  0  0  0  0  0  0  0
   -1.5412  -27.0780   23.6603 C   0  0  0  0  0  0  0  0  0  0  0  0
   -1.7586  -28.4745   23.1962 C   0  0  0  0  0  0  0  0  0  0  0  0
   -0.7807  -29.4249   23.7557 N   0  0  0  0  0  0  0  0  0  0  0  0
   -0.9562  -29.5758   25.2285 C   0  0  0  0  0  0  0  0  0  0  0  0
   -1.9096  -30.7534   24.9914 C   0  0  0  0  0  0  0  0  0  0  0  0
   -1.2279  -30.8404   23.6028 C   0  0  1  0  0  0  0  0  0  0  0  0
   -2.0777  -31.2366   22.4195 C   0  0  0  0  0  0  0  0  0  0  0  0
   -2.0047  -32.7533   22.5193 C   0  0  0  0  0  0  0  0  0  0  0  0
   -0.7517  -33.0872   23.1422 O   0  0  0  0  0  0  0  0  0  0  0  0
   -0.1051  -31.8661   23.5367 C   0  0  0  0  0  0  0  0  0  0  0  0
   -2.3030  -26.6881   24.7202 O   0  0  0  0  0  0  0  0  0  0  0  0
  1  2  1  0
  2  3  2  0
  3  4  1  0
  4  5  2  0
  5  6  1  0
  6  7  1  0
  7  8  1  0
  8  9  1  0
 10  9  1  1
 10 11  1  0
 11 12  1  0
 12 13  1  0
 13 14  1  0
  5 15  1  0
 15  2  1  0
 10  7  1  0
 14 10  1  0
M  END
>  <inchikey>  (1630) 
LEZSIBRCBVVART-UHFFFAOYSA-N

>  <tags>  (1630) 
fragmenstein_placed,CpKRS_FrAncestor_bulkdock_iter2

>  <ref_pdb>  (1630) 
x0654b

>  <energy_score>  (1630) 
-42.29039

>  <distance_score>  (1630) 
0.89761

>  <HIPPO Pose ID>  (1630) 
61402

>  <ref_mols>  (1630) 
x0675b

>  <smiles>  (1630) 
Brc1ccc(CN2CCC23CCOC3)o1

>  <HIPPO Compound ID>  (1630) 
453185

>  <alias>  (1630) 
LEZSIBRCBVVART-UHFFFAOYSA-N-P60

>  <subsites>  (1630) 


>  <placement_batch>  (1630) 
CpKRS_FrAncestor_bulkdock_iter2

>  <name>  (1630) 
LEZSIBRCBVVART-UHFFFAOYSA-N-P60

$$$$
HGGARWGHFYHOBH-UHFFFAOYSA-N-P60
     RDKit          3D

 14 16  0  0  0  0  0  0  0  0999 V2000
   -2.6978  -24.3904   26.3671 Br  0  0  0  0  0  0  0  0  0  0  0  0
   -1.9752  -25.4056   24.9534 C   0  0  0  0  0  0  0  0  0  0  0  0
   -1.0811  -24.9698   24.0057 C   0  0  0  0  0  0  0  0  0  0  0  0
   -0.8169  -26.0852   23.1714 C   0  0  0  0  0  0  0  0  0  0  0  0
   -1.5918  -27.1192   23.6532 C   0  0  0  0  0  0  0  0  0  0  0  0
   -1.8109  -28.5377   23.2613 C   0  0  0  0  0  0  0  0  0  0  0  0
   -0.6958  -29.4243   23.6460 N   0  0  0  0  0  0  0  0  0  0  0  0
   -0.5058  -29.4330   25.1342 C   0  0  0  0  0  0  0  0  0  0  0  0
   -1.4145  -30.6762   25.2472 C   0  0  0  0  0  0  0  0  0  0  0  0
   -1.1486  -30.8029   23.7767 C   0  0  0  0  0  0  0  0  0  0  0  0
   -0.1946  -31.8809   23.3330 C   0  0  0  0  0  0  0  0  0  0  0  0
   -1.3532  -32.6709   22.8870 O   0  0  0  0  0  0  0  0  0  0  0  0
   -2.1520  -31.4397   22.8664 C   0  0  0  0  0  0  0  0  0  0  0  0
   -2.3025  -26.7017   24.7379 O   0  0  0  0  0  0  0  0  0  0  0  0
  1  2  1  0
  2  3  2  0
  3  4  1  0
  4  5  2  0
  5  6  1  0
  6  7  1  0
  7  8  1  0
  8  9  1  0
  9 10  1  0
 10 11  1  0
 11 12  1  0
 12 13  1  0
  5 14  1  0
 14  2  1  0
 10  7  1  0
 13 10  1  0
M  END
>  <inchikey>  (1631) 
HGGARWGHFYHOBH-UHFFFAOYSA-N

>  <tags>  (1631) 
fragmenstein_placed,CpKRS_FrAncestor_bulkdock_iter2

>  <ref_pdb>  (1631) 
x0654b

>  <energy_score>  (1631) 
-30.728185

>  <distance_score>  (1631) 
0.870243

>  <HIPPO Pose ID>  (1631) 
61406

>  <ref_mols>  (1631) 
x0675b

>  <smiles>  (1631) 
Brc1ccc(CN2CCC23COC3)o1

>  <HIPPO Compound ID>  (1631) 
453187

>  <alias>  (1631) 
HGGARWGHFYHOBH-UHFFFAOYSA-N-P60

>  <subsites>  (1631) 


>  <placement_batch>  (1631) 
CpKRS_FrAncestor_bulkdock_iter2

>  <name>  (1631) 
HGGARWGHFYHOBH-UHFFFAOYSA-N-P60

$$$$
JYMRHWPVNUUNNZ-UHFFFAOYSA-N-P60
     RDKit          3D

 14 16  0  0  0  0  0  0  0  0999 V2000
   -2.8312  -23.9222   26.1726 Br  0  0  0  0  0  0  0  0  0  0  0  0
   -2.1749  -25.2433   24.9916 C   0  0  0  0  0  0  0  0  0  0  0  0
   -1.1335  -25.0662   24.1211 C   0  0  0  0  0  0  0  0  0  0  0  0
   -0.8627  -26.2665   23.3982 C   0  0  0  0  0  0  0  0  0  0  0  0
   -1.7329  -27.2854   23.7396 C   0  0  0  0  0  0  0  0  0  0  0  0
   -1.8048  -28.6958   23.2376 C   0  0  0  0  0  0  0  0  0  0  0  0
   -0.6528  -29.5282   23.6376 N   0  0  0  0  0  0  0  0  0  0  0  0
   -0.4796  -29.5673   25.1280 C   0  0  0  0  0  0  0  0  0  0  0  0
   -1.3607  -30.8324   25.2006 C   0  0  0  0  0  0  0  0  0  0  0  0
   -1.0481  -30.9294   23.7362 C   0  0  0  0  0  0  0  0  0  0  0  0
   -0.0373  -31.9600   23.3075 C   0  0  0  0  0  0  0  0  0  0  0  0
   -1.1499  -32.7946   22.8262 O   0  0  0  0  0  0  0  0  0  0  0  0
   -1.9972  -31.5972   22.7901 C   0  0  0  0  0  0  0  0  0  0  0  0
   -2.8744  -26.7737   24.9144 S   0  0  0  0  0  0  0  0  0  0  0  0
  1  2  1  0
  2  3  2  0
  3  4  1  0
  4  5  2  0
  5  6  1  0
  6  7  1  0
  7  8  1  0
  8  9  1  0
  9 10  1  0
 10 11  1  0
 11 12  1  0
 12 13  1  0
  5 14  1  0
 14  2  1  0
 10  7  1  0
 13 10  1  0
M  END
>  <inchikey>  (1632) 
JYMRHWPVNUUNNZ-UHFFFAOYSA-N

>  <tags>  (1632) 
fragmenstein_placed,CpKRS_FrAncestor_bulkdock_iter2

>  <ref_pdb>  (1632) 
x0654b

>  <energy_score>  (1632) 
-41.757611

>  <distance_score>  (1632) 
0.956549

>  <HIPPO Pose ID>  (1632) 
61408

>  <ref_mols>  (1632) 
x0675b

>  <smiles>  (1632) 
Brc1ccc(CN2CCC23COC3)s1

>  <HIPPO Compound ID>  (1632) 
453188

>  <alias>  (1632) 
JYMRHWPVNUUNNZ-UHFFFAOYSA-N-P60

>  <subsites>  (1632) 


>  <placement_batch>  (1632) 
CpKRS_FrAncestor_bulkdock_iter2

>  <name>  (1632) 
JYMRHWPVNUUNNZ-UHFFFAOYSA-N-P60

$$$$
GPPJTTDOECJQKO-UHFFFAOYSA-N-P60
     RDKit          3D

 15 17  0  0  0  0  0  0  0  0999 V2000
   -2.8051  -24.6677   26.5076 Br  0  0  0  0  0  0  0  0  0  0  0  0
   -1.9943  -25.5442   25.0479 C   0  0  0  0  0  0  0  0  0  0  0  0
   -1.1315  -24.9763   24.1420 C   0  0  0  0  0  0  0  0  0  0  0  0
   -0.7702  -26.0103   23.2457 C   0  0  0  0  0  0  0  0  0  0  0  0
   -1.4564  -27.1360   23.6542 C   0  0  0  0  0  0  0  0  0  0  0  0
   -1.5153  -28.5408   23.1602 C   0  0  0  0  0  0  0  0  0  0  0  0
   -0.2927  -29.2874   23.5082 N   0  0  0  0  0  0  0  0  0  0  0  0
   -0.1815  -29.5345   24.9564 C   0  0  0  0  0  0  0  0  0  0  0  0
   -1.0576  -30.7415   25.2629 C   0  0  0  0  0  0  0  0  0  0  0  0
   -0.9455  -31.5643   23.9888 C   0  0  1  0  0  0  0  0  0  0  0  0
   -0.4115  -33.0061   24.0779 C   0  0  0  0  0  0  0  0  0  0  0  0
   -1.7427  -33.3965   23.4465 C   0  0  0  0  0  0  0  0  0  0  0  0
   -2.2571  -32.0529   23.5890 O   0  0  0  0  0  0  0  0  0  0  0  0
   -0.3286  -30.6450   22.9259 C   0  0  0  0  0  0  0  0  0  0  0  0
   -2.2084  -26.8507   24.7538 O   0  0  0  0  0  0  0  0  0  0  0  0
  1  2  1  0
  2  3  2  0
  3  4  1  0
  4  5  2  0
  5  6  1  0
  6  7  1  0
  7  8  1  0
  8  9  1  0
 10  9  1  1
 10 11  1  0
 11 12  1  0
 12 13  1  0
 10 14  1  0
  5 15  1  0
 15  2  1  0
 14  7  1  0
 13 10  1  0
M  END
>  <inchikey>  (1633) 
GPPJTTDOECJQKO-UHFFFAOYSA-N

>  <tags>  (1633) 
fragmenstein_placed,CpKRS_FrAncestor_bulkdock_iter2

>  <ref_pdb>  (1633) 
x0654b

>  <energy_score>  (1633) 
-32.576643

>  <distance_score>  (1633) 
0.713217

>  <HIPPO Pose ID>  (1633) 
61410

>  <ref_mols>  (1633) 
x0675b

>  <smiles>  (1633) 
Brc1ccc(CN2CCC3(CCO3)C2)o1

>  <HIPPO Compound ID>  (1633) 
453189

>  <alias>  (1633) 
GPPJTTDOECJQKO-UHFFFAOYSA-N-P60

>  <subsites>  (1633) 


>  <placement_batch>  (1633) 
CpKRS_FrAncestor_bulkdock_iter2

>  <name>  (1633) 
GPPJTTDOECJQKO-UHFFFAOYSA-N-P60

$$$$
KKVOWJBALSBJFM-UHFFFAOYSA-N-P60
     RDKit          3D

 15 17  0  0  0  0  0  0  0  0999 V2000
   -1.6453  -23.1725   23.9060 Br  0  0  0  0  0  0  0  0  0  0  0  0
   -1.7641  -25.0276   24.2450 C   0  0  0  0  0  0  0  0  0  0  0  0
   -2.3853  -25.5871   25.3296 C   0  0  0  0  0  0  0  0  0  0  0  0
   -2.4797  -27.0019   25.1742 C   0  0  0  0  0  0  0  0  0  0  0  0
   -1.9092  -27.4380   23.9902 C   0  0  0  0  0  0  0  0  0  0  0  0
   -1.9145  -28.8051   23.3793 C   0  0  0  0  0  0  0  0  0  0  0  0
   -0.7210  -29.5772   23.7340 N   0  0  0  0  0  0  0  0  0  0  0  0
   -0.6155  -30.7620   22.8563 C   0  0  0  0  0  0  0  0  0  0  0  0
   -0.0272  -31.8647   23.7234 C   0  0  0  0  0  0  0  0  0  0  0  0
   -0.7119  -31.5893   25.0460 C   0  0  2  0  0  0  0  0  0  0  0  0
   -0.2981  -32.3879   26.2889 C   0  0  0  0  0  0  0  0  0  0  0  0
   -1.6433  -33.0878   26.1241 C   0  0  0  0  0  0  0  0  0  0  0  0
   -2.0443  -32.1790   25.0718 O   0  0  0  0  0  0  0  0  0  0  0  0
   -0.7695  -30.0698   25.1245 C   0  0  0  0  0  0  0  0  0  0  0  0
   -1.1607  -26.1534   23.1438 S   0  0  0  0  0  0  0  0  0  0  0  0
  1  2  1  0
  2  3  2  0
  3  4  1  0
  4  5  2  0
  5  6  1  0
  6  7  1  0
  7  8  1  0
  8  9  1  0
 10  9  1  6
 10 11  1  0
 11 12  1  0
 12 13  1  0
 10 14  1  0
  5 15  1  0
 15  2  1  0
 14  7  1  0
 13 10  1  0
M  END
>  <inchikey>  (1634) 
KKVOWJBALSBJFM-UHFFFAOYSA-N

>  <tags>  (1634) 
fragmenstein_placed,CpKRS_FrAncestor_bulkdock_iter2

>  <ref_pdb>  (1634) 
x0654b

>  <energy_score>  (1634) 
-33.740606

>  <distance_score>  (1634) 
0.950223

>  <HIPPO Pose ID>  (1634) 
61412

>  <ref_mols>  (1634) 
x0675b

>  <smiles>  (1634) 
Brc1ccc(CN2CCC3(CCO3)C2)s1

>  <HIPPO Compound ID>  (1634) 
453190

>  <alias>  (1634) 
KKVOWJBALSBJFM-UHFFFAOYSA-N-P60

>  <subsites>  (1634) 


>  <placement_batch>  (1634) 
CpKRS_FrAncestor_bulkdock_iter2

>  <name>  (1634) 
KKVOWJBALSBJFM-UHFFFAOYSA-N-P60

$$$$
KNWZHIWPPIXAJQ-UHFFFAOYSA-N-P59
     RDKit          3D

 13 14  0  0  0  0  0  0  0  0999 V2000
    6.5327  -20.3036   20.7836 Br  0  0  0  0  0  0  0  0  0  0  0  0
    5.0437  -21.3939   21.0795 C   0  0  0  0  0  0  0  0  0  0  0  0
    3.9287  -21.0647   21.8131 C   0  0  0  0  0  0  0  0  0  0  0  0
    3.1219  -22.2264   21.8191 C   0  0  0  0  0  0  0  0  0  0  0  0
    3.8237  -23.1909   21.1290 C   0  0  0  0  0  0  0  0  0  0  0  0
    3.5440  -24.6024   20.7827 C   0  0  0  0  0  0  0  0  0  0  0  0
    2.6147  -24.6904   19.6541 N   0  0  0  0  0  0  0  0  0  0  0  0
    3.1744  -24.1062   18.4139 C   0  0  0  0  0  0  0  0  0  0  0  0
    2.4607  -24.6520   17.1722 C   0  0  0  0  0  0  0  0  0  0  0  0
    2.6606  -26.0662   17.0091 O   0  0  0  0  0  0  0  0  0  0  0  0
    2.8153  -26.7563   18.2578 C   0  0  0  0  0  0  0  0  0  0  0  0
    2.1330  -26.0629   19.4379 C   0  0  0  0  0  0  0  0  0  0  0  0
    4.9914  -22.6814   20.6624 O   0  0  0  0  0  0  0  0  0  0  0  0
  1  2  1  0
  2  3  2  0
  3  4  1  0
  4  5  2  0
  5  6  1  0
  6  7  1  0
  7  8  1  0
  8  9  1  0
  9 10  1  0
 10 11  1  0
 11 12  1  0
  5 13  1  0
 13  2  1  0
 12  7  1  0
M  END
>  <inchikey>  (1635) 
KNWZHIWPPIXAJQ-UHFFFAOYSA-N

>  <tags>  (1635) 
fragmenstein_placed,CpKRS_FrAncestor_bulkdock_iter2

>  <ref_pdb>  (1635) 
x0654b

>  <energy_score>  (1635) 
-27.789566

>  <distance_score>  (1635) 
0.819605

>  <HIPPO Pose ID>  (1635) 
61413

>  <ref_mols>  (1635) 
x0675a

>  <smiles>  (1635) 
Brc1ccc(CN2CCOCC2)o1

>  <HIPPO Compound ID>  (1635) 
453191

>  <alias>  (1635) 
KNWZHIWPPIXAJQ-UHFFFAOYSA-N-P59

>  <subsites>  (1635) 


>  <placement_batch>  (1635) 
CpKRS_FrAncestor_bulkdock_iter2

>  <name>  (1635) 
KNWZHIWPPIXAJQ-UHFFFAOYSA-N-P59

$$$$
XTTAOCHKCUOJFW-UHFFFAOYSA-N-P60
     RDKit          3D

 13 14  0  0  0  0  0  0  0  0999 V2000
   -1.6202  -23.1635   23.8807 Br  0  0  0  0  0  0  0  0  0  0  0  0
   -1.7669  -25.0126   24.2412 C   0  0  0  0  0  0  0  0  0  0  0  0
   -2.4766  -25.5504   25.2816 C   0  0  0  0  0  0  0  0  0  0  0  0
   -2.5756  -26.9655   25.1372 C   0  0  0  0  0  0  0  0  0  0  0  0
   -1.9126  -27.4249   24.0114 C   0  0  0  0  0  0  0  0  0  0  0  0
   -1.8901  -28.7993   23.4185 C   0  0  0  0  0  0  0  0  0  0  0  0
   -0.7277  -29.5907   23.8425 N   0  0  0  0  0  0  0  0  0  0  0  0
   -0.5736  -30.7548   22.9360 C   0  0  0  0  0  0  0  0  0  0  0  0
   -0.1795  -32.0470   23.6620 C   0  0  0  0  0  0  0  0  0  0  0  0
   -1.1687  -32.4255   24.6287 O   0  0  0  0  0  0  0  0  0  0  0  0
   -1.6372  -31.3251   25.4184 C   0  0  0  0  0  0  0  0  0  0  0  0
   -0.8218  -30.0367   25.2435 C   0  0  0  0  0  0  0  0  0  0  0  0
   -1.0838  -26.1600   23.2110 S   0  0  0  0  0  0  0  0  0  0  0  0
  1  2  1  0
  2  3  2  0
  3  4  1  0
  4  5  2  0
  5  6  1  0
  6  7  1  0
  7  8  1  0
  8  9  1  0
  9 10  1  0
 10 11  1  0
 11 12  1  0
  5 13  1  0
 13  2  1  0
 12  7  1  0
M  END
>  <inchikey>  (1636) 
XTTAOCHKCUOJFW-UHFFFAOYSA-N

>  <tags>  (1636) 
fragmenstein_placed,CpKRS_FrAncestor_bulkdock_iter2

>  <ref_pdb>  (1636) 
x0654b

>  <energy_score>  (1636) 
-21.598302

>  <distance_score>  (1636) 
0.882482

>  <HIPPO Pose ID>  (1636) 
61416

>  <ref_mols>  (1636) 
x0675b

>  <smiles>  (1636) 
Brc1ccc(CN2CCOCC2)s1

>  <HIPPO Compound ID>  (1636) 
453192

>  <alias>  (1636) 
XTTAOCHKCUOJFW-UHFFFAOYSA-N-P60

>  <subsites>  (1636) 


>  <placement_batch>  (1636) 
CpKRS_FrAncestor_bulkdock_iter2

>  <name>  (1636) 
XTTAOCHKCUOJFW-UHFFFAOYSA-N-P60

$$$$
CORIIGSQWGBPIR-UHFFFAOYSA-N-P60
     RDKit          3D

 13 14  0  0  0  0  0  0  0  0999 V2000
   -1.8656  -23.3668   24.1803 Br  0  0  0  0  0  0  0  0  0  0  0  0
   -1.9884  -25.2156   24.5601 C   0  0  0  0  0  0  0  0  0  0  0  0
   -1.5729  -26.1918   23.6951 C   0  0  0  0  0  0  0  0  0  0  0  0
   -1.9913  -27.4909   24.1362 C   0  0  0  0  0  0  0  0  0  0  0  0
   -1.8146  -28.7522   23.3397 C   0  0  0  0  0  0  0  0  0  0  0  0
   -0.4769  -29.3280   23.5477 N   0  0  0  0  0  0  0  0  0  0  0  0
   -0.2825  -30.4797   22.6314 C   0  0  0  0  0  0  0  0  0  0  0  0
   -0.4719  -31.8703   23.2757 C   0  0  0  0  0  0  0  0  0  0  0  0
   -1.5127  -31.8549   24.2566 O   0  0  0  0  0  0  0  0  0  0  0  0
   -1.1972  -30.9663   25.3392 C   0  0  0  0  0  0  0  0  0  0  0  0
   -0.2757  -29.8001   24.9283 C   0  0  0  0  0  0  0  0  0  0  0  0
   -2.6337  -27.4084   25.3625 C   0  0  0  0  0  0  0  0  0  0  0  0
   -2.7216  -25.8108   25.9608 S   0  0  0  0  0  0  0  0  0  0  0  0
  1  2  1  0
  2  3  2  0
  3  4  1  0
  4  5  1  0
  5  6  1  0
  6  7  1  0
  7  8  1  0
  8  9  1  0
  9 10  1  0
 10 11  1  0
  4 12  2  0
 12 13  1  0
 13  2  1  0
 11  6  1  0
M  END
>  <inchikey>  (1637) 
CORIIGSQWGBPIR-UHFFFAOYSA-N

>  <tags>  (1637) 
fragmenstein_placed,CpKRS_FrAncestor_bulkdock_iter2

>  <ref_pdb>  (1637) 
x0654b

>  <energy_score>  (1637) 
-31.274414

>  <distance_score>  (1637) 
0.813941

>  <HIPPO Pose ID>  (1637) 
61422

>  <ref_mols>  (1637) 
x0675b

>  <smiles>  (1637) 
Brc1cc(CN2CCOCC2)cs1

>  <HIPPO Compound ID>  (1637) 
453195

>  <alias>  (1637) 
CORIIGSQWGBPIR-UHFFFAOYSA-N-P60

>  <subsites>  (1637) 


>  <placement_batch>  (1637) 
CpKRS_FrAncestor_bulkdock_iter2

>  <name>  (1637) 
CORIIGSQWGBPIR-UHFFFAOYSA-N-P60

$$$$
ZFHCGPSWNKSPHD-UHFFFAOYSA-N-P59
     RDKit          3D

 15 17  0  0  0  0  0  0  0  0999 V2000
    2.9466  -19.7820   23.2486 Br  0  0  0  0  0  0  0  0  0  0  0  0
    3.7475  -20.9977   22.1019 C   0  0  0  0  0  0  0  0  0  0  0  0
    4.8865  -20.8937   21.3471 C   0  0  0  0  0  0  0  0  0  0  0  0
    5.0677  -22.0539   20.6425 O   0  0  0  0  0  0  0  0  0  0  0  0
    4.0123  -22.8684   20.9573 C   0  0  0  0  0  0  0  0  0  0  0  0
    3.8597  -24.1659   20.2602 C   0  0  0  0  0  0  0  0  0  0  0  0
    3.0097  -23.9404   19.1009 N   0  0  0  0  0  0  0  0  0  0  0  0
    3.8235  -23.5856   17.9117 C   0  0  0  0  0  0  0  0  0  0  0  0
    2.8072  -24.3774   17.0695 C   0  0  0  0  0  0  0  0  0  0  0  0
    2.5165  -25.1316   18.3995 C   0  0  2  0  0  0  0  0  0  0  0  0
    1.0689  -25.4770   18.6412 C   0  0  0  0  0  0  0  0  0  0  0  0
    0.9801  -26.8074   17.9036 C   0  0  0  0  0  0  0  0  0  0  0  0
    2.3108  -27.3639   17.8415 O   0  0  0  0  0  0  0  0  0  0  0  0
    3.1977  -26.4702   18.5273 C   0  0  0  0  0  0  0  0  0  0  0  0
    3.1746  -22.2475   21.8507 C   0  0  0  0  0  0  0  0  0  0  0  0
  1  2  1  0
  2  3  2  0
  3  4  1  0
  4  5  1  0
  5  6  1  0
  6  7  1  0
  7  8  1  0
  8  9  1  0
 10  9  1  6
 10 11  1  0
 11 12  1  0
 12 13  1  0
 13 14  1  0
  5 15  2  0
 15  2  1  0
 10  7  1  0
 14 10  1  0
M  END
>  <inchikey>  (1638) 
ZFHCGPSWNKSPHD-UHFFFAOYSA-N

>  <tags>  (1638) 
fragmenstein_placed,CpKRS_FrAncestor_bulkdock_iter2

>  <ref_pdb>  (1638) 
x0654b

>  <energy_score>  (1638) 
-33.878767

>  <distance_score>  (1638) 
0.939573

>  <HIPPO Pose ID>  (1638) 
61423

>  <ref_mols>  (1638) 
x0675a

>  <smiles>  (1638) 
Brc1coc(CN2CCC23CCOC3)c1

>  <HIPPO Compound ID>  (1638) 
453196

>  <alias>  (1638) 
ZFHCGPSWNKSPHD-UHFFFAOYSA-N-P59

>  <subsites>  (1638) 


>  <placement_batch>  (1638) 
CpKRS_FrAncestor_bulkdock_iter2

>  <name>  (1638) 
ZFHCGPSWNKSPHD-UHFFFAOYSA-N-P59

$$$$
HJBDMIUHGKIBOX-UHFFFAOYSA-N-P60
     RDKit          3D

 14 16  0  0  0  0  0  0  0  0999 V2000
   -3.8496  -25.3797   27.0916 Br  0  0  0  0  0  0  0  0  0  0  0  0
   -2.6244  -25.8912   25.7820 C   0  0  0  0  0  0  0  0  0  0  0  0
   -1.4781  -25.2464   25.4069 C   0  0  0  0  0  0  0  0  0  0  0  0
   -0.8559  -25.9566   24.4279 O   0  0  0  0  0  0  0  0  0  0  0  0
   -1.6225  -27.0694   24.1809 C   0  0  0  0  0  0  0  0  0  0  0  0
   -1.1264  -27.9875   23.1102 C   0  0  0  0  0  0  0  0  0  0  0  0
   -0.4613  -29.2514   23.4745 N   0  0  0  0  0  0  0  0  0  0  0  0
    0.2746  -29.1908   24.7671 C   0  0  0  0  0  0  0  0  0  0  0  0
   -0.8604  -30.0111   25.4423 C   0  0  0  0  0  0  0  0  0  0  0  0
   -1.2974  -30.2840   24.0374 C   0  0  0  0  0  0  0  0  0  0  0  0
   -2.7308  -30.5118   23.6834 C   0  0  0  0  0  0  0  0  0  0  0  0
   -2.4749  -31.9551   23.6097 O   0  0  0  0  0  0  0  0  0  0  0  0
   -1.0375  -31.6759   23.5047 C   0  0  0  0  0  0  0  0  0  0  0  0
   -2.7425  -27.0482   24.9891 C   0  0  0  0  0  0  0  0  0  0  0  0
  1  2  1  0
  2  3  2  0
  3  4  1  0
  4  5  1  0
  5  6  1  0
  6  7  1  0
  7  8  1  0
  8  9  1  0
  9 10  1  0
 10 11  1  0
 11 12  1  0
 12 13  1  0
  5 14  2  0
 14  2  1  0
 10  7  1  0
 13 10  1  0
M  END
>  <inchikey>  (1639) 
HJBDMIUHGKIBOX-UHFFFAOYSA-N

>  <tags>  (1639) 
fragmenstein_placed,CpKRS_FrAncestor_bulkdock_iter2

>  <ref_pdb>  (1639) 
x0654b

>  <energy_score>  (1639) 
-20.569092

>  <distance_score>  (1639) 
0.847

>  <HIPPO Pose ID>  (1639) 
61426

>  <ref_mols>  (1639) 
x0675b

>  <smiles>  (1639) 
Brc1coc(CN2CCC23COC3)c1

>  <HIPPO Compound ID>  (1639) 
453197

>  <alias>  (1639) 
HJBDMIUHGKIBOX-UHFFFAOYSA-N-P60

>  <subsites>  (1639) 


>  <placement_batch>  (1639) 
CpKRS_FrAncestor_bulkdock_iter2

>  <name>  (1639) 
HJBDMIUHGKIBOX-UHFFFAOYSA-N-P60

$$$$
HRBAUSWUXLYOLF-UHFFFAOYSA-N-P60
     RDKit          3D

 13 14  0  0  0  0  0  0  0  0999 V2000
   -3.8901  -24.9857   26.9355 Br  0  0  0  0  0  0  0  0  0  0  0  0
   -2.6680  -25.6719   25.7107 C   0  0  0  0  0  0  0  0  0  0  0  0
   -1.4786  -25.1405   25.2925 C   0  0  0  0  0  0  0  0  0  0  0  0
   -0.8871  -25.9835   24.3991 O   0  0  0  0  0  0  0  0  0  0  0  0
   -1.7207  -27.0609   24.2626 C   0  0  0  0  0  0  0  0  0  0  0  0
   -1.3139  -28.1581   23.3379 C   0  0  0  0  0  0  0  0  0  0  0  0
   -0.4605  -29.1944   23.9532 N   0  0  0  0  0  0  0  0  0  0  0  0
   -0.1451  -30.2269   22.9303 C   0  0  0  0  0  0  0  0  0  0  0  0
   -0.0781  -31.6539   23.4999 C   0  0  0  0  0  0  0  0  0  0  0  0
   -1.3179  -32.0573   24.1006 O   0  0  0  0  0  0  0  0  0  0  0  0
   -1.9559  -31.0081   24.8392 C   0  0  0  0  0  0  0  0  0  0  0  0
   -1.0275  -29.8311   25.1557 C   0  0  0  0  0  0  0  0  0  0  0  0
   -2.8489  -26.8887   25.0396 C   0  0  0  0  0  0  0  0  0  0  0  0
  1  2  1  0
  2  3  2  0
  3  4  1  0
  4  5  1  0
  5  6  1  0
  6  7  1  0
  7  8  1  0
  8  9  1  0
  9 10  1  0
 10 11  1  0
 11 12  1  0
  5 13  2  0
 13  2  1  0
 12  7  1  0
M  END
>  <inchikey>  (1640) 
HRBAUSWUXLYOLF-UHFFFAOYSA-N

>  <tags>  (1640) 
fragmenstein_placed,CpKRS_FrAncestor_bulkdock_iter2

>  <ref_pdb>  (1640) 
x0654b

>  <energy_score>  (1640) 
-27.064323

>  <distance_score>  (1640) 
0.56361

>  <HIPPO Pose ID>  (1640) 
61428

>  <ref_mols>  (1640) 
x0675b

>  <smiles>  (1640) 
Brc1coc(CN2CCOCC2)c1

>  <HIPPO Compound ID>  (1640) 
453198

>  <alias>  (1640) 
HRBAUSWUXLYOLF-UHFFFAOYSA-N-P60

>  <subsites>  (1640) 


>  <placement_batch>  (1640) 
CpKRS_FrAncestor_bulkdock_iter2

>  <name>  (1640) 
HRBAUSWUXLYOLF-UHFFFAOYSA-N-P60

$$$$
NJPNEGKDDHKHJO-UHFFFAOYSA-N-P59
     RDKit          3D

 15 17  0  0  0  0  0  0  0  0999 V2000
    2.9634  -19.8436   23.2173 Br  0  0  0  0  0  0  0  0  0  0  0  0
    3.8789  -20.9597   22.0275 C   0  0  0  0  0  0  0  0  0  0  0  0
    5.0337  -20.6630   21.3498 C   0  0  0  0  0  0  0  0  0  0  0  0
    5.5259  -21.9829   20.3672 S   0  0  0  0  0  0  0  0  0  0  0  0
    4.1526  -22.9081   20.8244 C   0  0  0  0  0  0  0  0  0  0  0  0
    3.8360  -24.2331   20.2088 C   0  0  0  0  0  0  0  0  0  0  0  0
    2.9349  -23.9984   19.0881 N   0  0  0  0  0  0  0  0  0  0  0  0
    3.6938  -23.6563   17.8564 C   0  0  0  0  0  0  0  0  0  0  0  0
    2.6326  -24.4397   17.0676 C   0  0  0  0  0  0  0  0  0  0  0  0
    2.4098  -25.1936   18.4117 C   0  0  2  0  0  0  0  0  0  0  0  0
    0.9785  -25.5517   18.7188 C   0  0  0  0  0  0  0  0  0  0  0  0
    0.8694  -26.8845   17.9854 C   0  0  0  0  0  0  0  0  0  0  0  0
    2.2031  -27.4234   17.8508 O   0  0  0  0  0  0  0  0  0  0  0  0
    3.1074  -26.5272   18.5076 C   0  0  0  0  0  0  0  0  0  0  0  0
    3.3641  -22.2376   21.7335 C   0  0  0  0  0  0  0  0  0  0  0  0
  1  2  1  0
  2  3  2  0
  3  4  1  0
  4  5  1  0
  5  6  1  0
  6  7  1  0
  7  8  1  0
  8  9  1  0
 10  9  1  6
 10 11  1  0
 11 12  1  0
 12 13  1  0
 13 14  1  0
  5 15  2  0
 15  2  1  0
 10  7  1  0
 14 10  1  0
M  END
>  <inchikey>  (1641) 
NJPNEGKDDHKHJO-UHFFFAOYSA-N

>  <tags>  (1641) 
fragmenstein_placed,CpKRS_FrAncestor_bulkdock_iter2

>  <ref_pdb>  (1641) 
x0654b

>  <energy_score>  (1641) 
-33.215835

>  <distance_score>  (1641) 
0.889177

>  <HIPPO Pose ID>  (1641) 
61429

>  <ref_mols>  (1641) 
x0675a

>  <smiles>  (1641) 
Brc1csc(CN2CCC23CCOC3)c1

>  <HIPPO Compound ID>  (1641) 
453199

>  <alias>  (1641) 
NJPNEGKDDHKHJO-UHFFFAOYSA-N-P59

>  <subsites>  (1641) 


>  <placement_batch>  (1641) 
CpKRS_FrAncestor_bulkdock_iter2

>  <name>  (1641) 
NJPNEGKDDHKHJO-UHFFFAOYSA-N-P59

$$$$
MPSUASDDYWXHQX-UHFFFAOYSA-N-P60
     RDKit          3D

 14 16  0  0  0  0  0  0  0  0999 V2000
   -3.9219  -24.9789   26.9134 Br  0  0  0  0  0  0  0  0  0  0  0  0
   -2.6834  -25.6214   25.6571 C   0  0  0  0  0  0  0  0  0  0  0  0
   -1.5538  -24.9713   25.2376 C   0  0  0  0  0  0  0  0  0  0  0  0
   -0.6771  -25.9152   24.1071 S   0  0  0  0  0  0  0  0  0  0  0  0
   -1.8197  -27.1901   24.1928 C   0  0  0  0  0  0  0  0  0  0  0  0
   -1.6618  -28.4615   23.4055 C   0  0  0  0  0  0  0  0  0  0  0  0
   -0.7304  -29.4353   24.0139 N   0  0  0  0  0  0  0  0  0  0  0  0
   -1.1041  -29.7867   25.4273 C   0  0  0  0  0  0  0  0  0  0  0  0
   -1.9650  -30.9562   24.9093 C   0  0  0  0  0  0  0  0  0  0  0  0
   -1.1216  -30.8013   23.6766 C   0  0  0  0  0  0  0  0  0  0  0  0
   -1.6246  -31.2318   22.3357 C   0  0  0  0  0  0  0  0  0  0  0  0
   -0.8616  -32.4799   22.4878 O   0  0  0  0  0  0  0  0  0  0  0  0
   -0.0111  -31.8017   23.4781 C   0  0  0  0  0  0  0  0  0  0  0  0
   -2.8638  -26.8771   25.0434 C   0  0  0  0  0  0  0  0  0  0  0  0
  1  2  1  0
  2  3  2  0
  3  4  1  0
  4  5  1  0
  5  6  1  0
  6  7  1  0
  7  8  1  0
  8  9  1  0
  9 10  1  0
 10 11  1  0
 11 12  1  0
 12 13  1  0
  5 14  2  0
 14  2  1  0
 10  7  1  0
 13 10  1  0
M  END
>  <inchikey>  (1642) 
MPSUASDDYWXHQX-UHFFFAOYSA-N

>  <tags>  (1642) 
fragmenstein_placed,CpKRS_FrAncestor_bulkdock_iter2

>  <ref_pdb>  (1642) 
x0654b

>  <energy_score>  (1642) 
-35.805161

>  <distance_score>  (1642) 
0.87682

>  <HIPPO Pose ID>  (1642) 
61432

>  <ref_mols>  (1642) 
x0675b

>  <smiles>  (1642) 
Brc1csc(CN2CCC23COC3)c1

>  <HIPPO Compound ID>  (1642) 
453200

>  <alias>  (1642) 
MPSUASDDYWXHQX-UHFFFAOYSA-N-P60

>  <subsites>  (1642) 


>  <placement_batch>  (1642) 
CpKRS_FrAncestor_bulkdock_iter2

>  <name>  (1642) 
MPSUASDDYWXHQX-UHFFFAOYSA-N-P60

$$$$
XYQVGDMXJNORKK-UHFFFAOYSA-N-P60
     RDKit          3D

 13 14  0  0  0  0  0  0  0  0999 V2000
   -3.9824  -25.2396   27.0888 Br  0  0  0  0  0  0  0  0  0  0  0  0
   -2.7087  -25.7196   25.7932 C   0  0  0  0  0  0  0  0  0  0  0  0
   -1.6128  -24.9766   25.4445 C   0  0  0  0  0  0  0  0  0  0  0  0
   -0.6822  -25.7677   24.2456 S   0  0  0  0  0  0  0  0  0  0  0  0
   -1.7520  -27.1083   24.2090 C   0  0  0  0  0  0  0  0  0  0  0  0
   -1.5011  -28.2809   23.3029 C   0  0  0  0  0  0  0  0  0  0  0  0
   -0.5512  -29.2641   23.8552 N   0  0  0  0  0  0  0  0  0  0  0  0
   -0.3154  -30.3282   22.8447 C   0  0  0  0  0  0  0  0  0  0  0  0
   -0.1464  -31.7275   23.4578 C   0  0  0  0  0  0  0  0  0  0  0  0
   -1.3083  -32.1369   24.1944 O   0  0  0  0  0  0  0  0  0  0  0  0
   -1.8916  -31.0779   24.9640 C   0  0  0  0  0  0  0  0  0  0  0  0
   -0.9712  -29.8642   25.1353 C   0  0  0  0  0  0  0  0  0  0  0  0
   -2.8161  -26.9292   25.0737 C   0  0  0  0  0  0  0  0  0  0  0  0
  1  2  1  0
  2  3  2  0
  3  4  1  0
  4  5  1  0
  5  6  1  0
  6  7  1  0
  7  8  1  0
  8  9  1  0
  9 10  1  0
 10 11  1  0
 11 12  1  0
  5 13  2  0
 13  2  1  0
 12  7  1  0
M  END
>  <inchikey>  (1643) 
XYQVGDMXJNORKK-UHFFFAOYSA-N

>  <tags>  (1643) 
fragmenstein_placed,CpKRS_FrAncestor_bulkdock_iter2

>  <ref_pdb>  (1643) 
x0654b

>  <energy_score>  (1643) 
-28.970637

>  <distance_score>  (1643) 
0.486511

>  <HIPPO Pose ID>  (1643) 
61434

>  <ref_mols>  (1643) 
x0675b

>  <smiles>  (1643) 
Brc1csc(CN2CCOCC2)c1

>  <HIPPO Compound ID>  (1643) 
453201

>  <alias>  (1643) 
XYQVGDMXJNORKK-UHFFFAOYSA-N-P60

>  <subsites>  (1643) 


>  <placement_batch>  (1643) 
CpKRS_FrAncestor_bulkdock_iter2

>  <name>  (1643) 
XYQVGDMXJNORKK-UHFFFAOYSA-N-P60

$$$$
LGCGVLQTQMFBTQ-UHFFFAOYSA-N-P60
     RDKit          3D

 18 21  0  0  0  0  0  0  0  0999 V2000
   -1.0753  -26.0660   23.6954 C   0  0  0  0  0  0  0  0  0  0  0  0
   -1.2025  -24.7906   24.2512 C   0  0  0  0  0  0  0  0  0  0  0  0
   -2.1745  -24.6082   25.2044 C   0  0  0  0  0  0  0  0  0  0  0  0
   -3.0026  -25.6227   25.6049 C   0  0  0  0  0  0  0  0  0  0  0  0
   -2.9312  -26.8750   25.0560 C   0  0  0  0  0  0  0  0  0  0  0  0
   -1.9512  -27.1084   24.0754 C   0  0  0  0  0  0  0  0  0  0  0  0
   -1.8855  -28.4599   23.3986 C   0  0  0  0  0  0  0  0  0  0  0  0
   -0.8815  -29.3726   23.9702 N   0  0  0  0  0  0  0  0  0  0  0  0
   -1.2868  -29.8383   25.3267 C   0  0  0  0  0  0  0  0  0  0  0  0
   -1.9774  -31.0536   24.6992 C   0  0  0  0  0  0  0  0  0  0  0  0
   -1.0448  -30.7945   23.4821 C   0  0  1  0  0  0  0  0  0  0  0  0
   -1.6556  -30.9901   22.0885 C   0  0  0  0  0  0  0  0  0  0  0  0
   -1.7873  -32.4865   21.7960 C   0  0  0  0  0  0  0  0  0  0  0  0
   -0.4706  -33.2131   22.0380 C   0  0  0  0  0  0  0  0  0  0  0  0
   -0.0168  -32.9717   23.3717 O   0  0  0  0  0  0  0  0  0  0  0  0
    0.2735  -31.5832   23.5720 C   0  0  0  0  0  0  0  0  0  0  0  0
   -3.7432  -24.7723   26.5875 C   0  0  0  0  0  0  0  0  0  0  0  0
   -2.8337  -23.6001   26.0924 C   0  0  0  0  0  0  0  0  0  0  0  0
  1  2  2  0
  2  3  1  0
  3  4  2  0
  4  5  1  0
  5  6  2  0
  6  7  1  0
  7  8  1  0
  8  9  1  0
  9 10  1  0
 11 10  1  1
 11 12  1  0
 12 13  1  0
 13 14  1  0
 14 15  1  0
 15 16  1  0
  4 17  1  0
 17 18  1  0
  6  1  1  0
 11  8  1  0
 18  3  1  0
 16 11  1  0
M  END
>  <inchikey>  (1644) 
LGCGVLQTQMFBTQ-UHFFFAOYSA-N

>  <tags>  (1644) 
fragmenstein_placed,CpKRS_FrAncestor_bulkdock_iter2

>  <ref_pdb>  (1644) 
x0654b

>  <energy_score>  (1644) 
-44.126051

>  <distance_score>  (1644) 
0.885428

>  <HIPPO Pose ID>  (1644) 
61436

>  <ref_mols>  (1644) 
x0675b

>  <smiles>  (1644) 
c1cc2c(cc1CN1CCC13CCCOC3)CC2

>  <HIPPO Compound ID>  (1644) 
453202

>  <alias>  (1644) 
LGCGVLQTQMFBTQ-UHFFFAOYSA-N-P60

>  <subsites>  (1644) 


>  <placement_batch>  (1644) 
CpKRS_FrAncestor_bulkdock_iter2

>  <name>  (1644) 
LGCGVLQTQMFBTQ-UHFFFAOYSA-N-P60

$$$$
UIUHAKJZLZERQR-UHFFFAOYSA-N-P60
     RDKit          3D

 18 21  0  0  0  0  0  0  0  0999 V2000
   -0.9047  -25.9364   23.7774 C   0  0  0  0  0  0  0  0  0  0  0  0
   -1.2952  -24.8182   24.5170 C   0  0  0  0  0  0  0  0  0  0  0  0
   -2.4137  -24.9199   25.3189 C   0  0  0  0  0  0  0  0  0  0  0  0
   -3.1537  -26.1010   25.3702 C   0  0  0  0  0  0  0  0  0  0  0  0
   -2.8005  -27.2014   24.6125 C   0  0  0  0  0  0  0  0  0  0  0  0
   -1.6546  -27.1345   23.8102 C   0  0  0  0  0  0  0  0  0  0  0  0
   -1.2498  -28.3001   22.9324 C   0  0  0  0  0  0  0  0  0  0  0  0
   -0.4904  -29.4300   23.4886 N   0  0  0  0  0  0  0  0  0  0  0  0
    0.0208  -29.2438   24.8617 C   0  0  0  0  0  0  0  0  0  0  0  0
   -1.1228  -30.1219   25.4005 C   0  0  0  0  0  0  0  0  0  0  0  0
   -1.2752  -30.6000   23.9380 C   0  0  1  0  0  0  0  0  0  0  0  0
   -2.6665  -30.8505   23.4111 C   0  0  0  0  0  0  0  0  0  0  0  0
   -2.8902  -32.2774   23.8838 C   0  0  0  0  0  0  0  0  0  0  0  0
   -1.6148  -32.9371   23.8524 O   0  0  0  0  0  0  0  0  0  0  0  0
   -0.5945  -31.9397   23.6587 C   0  0  0  0  0  0  0  0  0  0  0  0
   -4.3617  -25.9467   26.2354 C   0  0  0  0  0  0  0  0  0  0  0  0
   -3.9838  -24.7034   27.0358 C   0  0  0  0  0  0  0  0  0  0  0  0
   -3.0653  -23.8577   26.1404 C   0  0  0  0  0  0  0  0  0  0  0  0
  1  2  2  0
  2  3  1  0
  3  4  2  0
  4  5  1  0
  5  6  2  0
  6  7  1  0
  7  8  1  0
  8  9  1  0
  9 10  1  0
 11 10  1  1
 11 12  1  0
 12 13  1  0
 13 14  1  0
 14 15  1  0
  4 16  1  0
 16 17  1  0
 17 18  1  0
  6  1  1  0
 11  8  1  0
 18  3  1  0
 15 11  1  0
M  END
>  <inchikey>  (1645) 
UIUHAKJZLZERQR-UHFFFAOYSA-N

>  <tags>  (1645) 
fragmenstein_placed,CpKRS_FrAncestor_bulkdock_iter2

>  <ref_pdb>  (1645) 
x0654b

>  <energy_score>  (1645) 
-12.192785

>  <distance_score>  (1645) 
0.889185

>  <HIPPO Pose ID>  (1645) 
61438

>  <ref_mols>  (1645) 
x0675b

>  <smiles>  (1645) 
c1cc2c(cc1CN1CCC13CCOC3)CCC2

>  <HIPPO Compound ID>  (1645) 
453203

>  <alias>  (1645) 
UIUHAKJZLZERQR-UHFFFAOYSA-N-P60

>  <subsites>  (1645) 


>  <placement_batch>  (1645) 
CpKRS_FrAncestor_bulkdock_iter2

>  <name>  (1645) 
UIUHAKJZLZERQR-UHFFFAOYSA-N-P60

$$$$
OZDYERNABSVUOG-UHFFFAOYSA-N-P60
     RDKit          3D

 17 20  0  0  0  0  0  0  0  0999 V2000
   -0.9788  -26.1732   23.8327 C   0  0  0  0  0  0  0  0  0  0  0  0
   -1.2776  -24.9635   24.4698 C   0  0  0  0  0  0  0  0  0  0  0  0
   -2.4409  -24.8735   25.2133 C   0  0  0  0  0  0  0  0  0  0  0  0
   -3.3153  -25.9553   25.3059 C   0  0  0  0  0  0  0  0  0  0  0  0
   -3.0493  -27.1427   24.6608 C   0  0  0  0  0  0  0  0  0  0  0  0
   -1.8662  -27.2635   23.9142 C   0  0  0  0  0  0  0  0  0  0  0  0
   -1.5992  -28.5694   23.2011 C   0  0  0  0  0  0  0  0  0  0  0  0
   -0.6186  -29.4642   23.8482 N   0  0  0  0  0  0  0  0  0  0  0  0
   -0.9013  -29.6794   25.3084 C   0  0  0  0  0  0  0  0  0  0  0  0
   -1.7882  -30.8921   24.9594 C   0  0  0  0  0  0  0  0  0  0  0  0
   -1.0149  -30.8610   23.6724 C   0  0  0  0  0  0  0  0  0  0  0  0
   -1.5882  -31.4251   22.4107 C   0  0  0  0  0  0  0  0  0  0  0  0
   -0.8051  -32.6481   22.6392 O   0  0  0  0  0  0  0  0  0  0  0  0
    0.0907  -31.8727   23.5115 C   0  0  0  0  0  0  0  0  0  0  0  0
   -4.5447  -25.6071   26.0768 C   0  0  0  0  0  0  0  0  0  0  0  0
   -4.0643  -24.3655   26.8164 C   0  0  0  0  0  0  0  0  0  0  0  0
   -3.0079  -23.6906   25.9277 C   0  0  0  0  0  0  0  0  0  0  0  0
  1  2  2  0
  2  3  1  0
  3  4  2  0
  4  5  1  0
  5  6  2  0
  6  7  1  0
  7  8  1  0
  8  9  1  0
  9 10  1  0
 10 11  1  0
 11 12  1  0
 12 13  1  0
 13 14  1  0
  4 15  1  0
 15 16  1  0
 16 17  1  0
  6  1  1  0
 11  8  1  0
 17  3  1  0
 14 11  1  0
M  END
>  <inchikey>  (1646) 
OZDYERNABSVUOG-UHFFFAOYSA-N

>  <tags>  (1646) 
fragmenstein_placed,CpKRS_FrAncestor_bulkdock_iter2

>  <ref_pdb>  (1646) 
x0654b

>  <energy_score>  (1646) 
-18.413101

>  <distance_score>  (1646) 
0.974462

>  <HIPPO Pose ID>  (1646) 
61440

>  <ref_mols>  (1646) 
x0675b

>  <smiles>  (1646) 
c1cc2c(cc1CN1CCC13COC3)CCC2

>  <HIPPO Compound ID>  (1646) 
453204

>  <alias>  (1646) 
OZDYERNABSVUOG-UHFFFAOYSA-N-P60

>  <subsites>  (1646) 


>  <placement_batch>  (1646) 
CpKRS_FrAncestor_bulkdock_iter2

>  <name>  (1646) 
OZDYERNABSVUOG-UHFFFAOYSA-N-P60

$$$$
JUWODSLJUKJUTM-UHFFFAOYSA-N-P60
     RDKit          3D

 18 21  0  0  0  0  0  0  0  0999 V2000
   -1.0545  -26.1003   23.6704 C   0  0  0  0  0  0  0  0  0  0  0  0
   -1.1813  -24.8300   24.2383 C   0  0  0  0  0  0  0  0  0  0  0  0
   -2.1581  -24.6532   25.1876 C   0  0  0  0  0  0  0  0  0  0  0  0
   -2.9976  -25.6665   25.5674 C   0  0  0  0  0  0  0  0  0  0  0  0
   -2.9305  -26.9124   25.0010 C   0  0  0  0  0  0  0  0  0  0  0  0
   -1.9379  -27.1428   24.0308 C   0  0  0  0  0  0  0  0  0  0  0  0
   -1.8566  -28.4946   23.3546 C   0  0  0  0  0  0  0  0  0  0  0  0
   -0.9111  -29.4535   23.9631 N   0  0  0  0  0  0  0  0  0  0  0  0
   -1.1630  -29.6938   25.3930 C   0  0  0  0  0  0  0  0  0  0  0  0
   -2.2880  -30.7145   25.4682 C   0  0  0  0  0  0  0  0  0  0  0  0
   -2.2932  -31.3966   24.1052 C   0  0  0  0  0  0  0  0  0  0  0  0
   -1.0652  -30.8083   23.3749 C   0  0  1  0  0  0  0  0  0  0  0  0
   -1.1728  -30.9314   21.8612 C   0  0  0  0  0  0  0  0  0  0  0  0
   -0.8235  -32.3884   21.6113 C   0  0  0  0  0  0  0  0  0  0  0  0
   -0.0659  -32.8468   22.7431 O   0  0  0  0  0  0  0  0  0  0  0  0
    0.1472  -31.7213   23.6070 C   0  0  0  0  0  0  0  0  0  0  0  0
   -3.7358  -24.8234   26.5593 C   0  0  0  0  0  0  0  0  0  0  0  0
   -2.8116  -23.6528   26.0888 C   0  0  0  0  0  0  0  0  0  0  0  0
  1  2  2  0
  2  3  1  0
  3  4  2  0
  4  5  1  0
  5  6  2  0
  6  7  1  0
  7  8  1  0
  8  9  1  0
  9 10  1  0
 10 11  1  0
 12 11  1  1
 12 13  1  0
 13 14  1  0
 14 15  1  0
 15 16  1  0
  4 17  1  0
 17 18  1  0
  6  1  1  0
 12  8  1  0
 18  3  1  0
 16 12  1  0
M  END
>  <inchikey>  (1647) 
JUWODSLJUKJUTM-UHFFFAOYSA-N

>  <tags>  (1647) 
fragmenstein_placed,CpKRS_FrAncestor_bulkdock_iter2

>  <ref_pdb>  (1647) 
x0654b

>  <energy_score>  (1647) 
-32.444729

>  <distance_score>  (1647) 
0.906789

>  <HIPPO Pose ID>  (1647) 
61442

>  <ref_mols>  (1647) 
x0675b

>  <smiles>  (1647) 
c1cc2c(cc1CN1CCCC13CCOC3)CC2

>  <HIPPO Compound ID>  (1647) 
453205

>  <alias>  (1647) 
JUWODSLJUKJUTM-UHFFFAOYSA-N-P60

>  <subsites>  (1647) 


>  <placement_batch>  (1647) 
CpKRS_FrAncestor_bulkdock_iter2

>  <name>  (1647) 
JUWODSLJUKJUTM-UHFFFAOYSA-N-P60

$$$$
XKBWETMGSOVTCX-UHFFFAOYSA-N-P60
     RDKit          3D

 16 18  0  0  0  0  0  0  0  0999 V2000
   -1.0490  -26.0521   23.6191 C   0  0  0  0  0  0  0  0  0  0  0  0
   -1.1943  -24.8043   24.2283 C   0  0  0  0  0  0  0  0  0  0  0  0
   -2.1430  -24.6895   25.2137 C   0  0  0  0  0  0  0  0  0  0  0  0
   -2.9317  -25.7429   25.5961 C   0  0  0  0  0  0  0  0  0  0  0  0
   -2.8410  -26.9723   24.9948 C   0  0  0  0  0  0  0  0  0  0  0  0
   -1.8836  -27.1366   23.9786 C   0  0  0  0  0  0  0  0  0  0  0  0
   -1.7700  -28.4555   23.2470 C   0  0  0  0  0  0  0  0  0  0  0  0
   -0.7445  -29.3674   23.7757 N   0  0  0  0  0  0  0  0  0  0  0  0
   -0.9793  -29.8053   25.1514 C   0  0  0  0  0  0  0  0  0  0  0  0
   -2.1672  -30.7377   25.3856 C   0  0  0  0  0  0  0  0  0  0  0  0
   -2.1803  -31.9864   24.5154 C   0  0  0  0  0  0  0  0  0  0  0  0
   -0.8777  -32.5113   24.3279 O   0  0  0  0  0  0  0  0  0  0  0  0
   -0.0321  -31.8201   23.3978 C   0  0  0  0  0  0  0  0  0  0  0  0
   -0.5301  -30.4768   22.8227 C   0  0  0  0  0  0  0  0  0  0  0  0
   -3.6606  -24.9504   26.6368 C   0  0  0  0  0  0  0  0  0  0  0  0
   -2.7923  -23.7375   26.1668 C   0  0  0  0  0  0  0  0  0  0  0  0
  1  2  2  0
  2  3  1  0
  3  4  2  0
  4  5  1  0
  5  6  2  0
  6  7  1  0
  7  8  1  0
  8  9  1  0
  9 10  1  0
 10 11  1  0
 11 12  1  0
 12 13  1  0
 13 14  1  0
  4 15  1  0
 15 16  1  0
  6  1  1  0
 14  8  1  0
 16  3  1  0
M  END
>  <inchikey>  (1648) 
XKBWETMGSOVTCX-UHFFFAOYSA-N

>  <tags>  (1648) 
fragmenstein_placed,CpKRS_FrAncestor_bulkdock_iter2

>  <ref_pdb>  (1648) 
x0654b

>  <energy_score>  (1648) 
-18.223104

>  <distance_score>  (1648) 
0.550006

>  <HIPPO Pose ID>  (1648) 
61444

>  <ref_mols>  (1648) 
x0675b

>  <smiles>  (1648) 
c1cc2c(cc1CN1CCCOCC1)CC2

>  <HIPPO Compound ID>  (1648) 
453206

>  <alias>  (1648) 
XKBWETMGSOVTCX-UHFFFAOYSA-N-P60

>  <subsites>  (1648) 


>  <placement_batch>  (1648) 
CpKRS_FrAncestor_bulkdock_iter2

>  <name>  (1648) 
XKBWETMGSOVTCX-UHFFFAOYSA-N-P60

$$$$
MTADCMHQNSQSCA-UHFFFAOYSA-N-P60
     RDKit          3D

 17 20  0  0  0  0  0  0  0  0999 V2000
   -1.0567  -26.1128   23.5747 C   0  0  0  0  0  0  0  0  0  0  0  0
   -1.2060  -24.8717   24.1967 C   0  0  0  0  0  0  0  0  0  0  0  0
   -2.1221  -24.7851   25.2154 C   0  0  0  0  0  0  0  0  0  0  0  0
   -2.8733  -25.8594   25.6188 C   0  0  0  0  0  0  0  0  0  0  0  0
   -2.7700  -27.0877   25.0137 C   0  0  0  0  0  0  0  0  0  0  0  0
   -1.8452  -27.2230   23.9641 C   0  0  0  0  0  0  0  0  0  0  0  0
   -1.6861  -28.5524   23.2512 C   0  0  0  0  0  0  0  0  0  0  0  0
   -0.4393  -29.2520   23.6082 N   0  0  0  0  0  0  0  0  0  0  0  0
   -0.4267  -29.6702   25.0183 C   0  0  0  0  0  0  0  0  0  0  0  0
   -1.4542  -30.7690   25.3513 C   0  0  0  0  0  0  0  0  0  0  0  0
   -1.8545  -31.5546   24.2201 O   0  0  0  0  0  0  0  0  0  0  0  0
   -0.7717  -31.7901   23.3119 C   0  0  0  0  0  0  0  0  0  0  0  0
   -0.2045  -30.4729   22.7697 C   0  0  0  0  0  0  0  0  0  0  0  0
    1.1802  -30.5650   22.1501 C   0  0  0  0  0  0  0  0  0  0  0  0
   -0.0047  -30.3246   21.2735 C   0  0  0  0  0  0  0  0  0  0  0  0
   -3.5859  -25.0863   26.6863 C   0  0  0  0  0  0  0  0  0  0  0  0
   -2.7504  -23.8554   26.2042 C   0  0  0  0  0  0  0  0  0  0  0  0
  1  2  2  0
  2  3  1  0
  3  4  2  0
  4  5  1  0
  5  6  2  0
  6  7  1  0
  7  8  1  0
  8  9  1  0
  9 10  1  0
 10 11  1  0
 11 12  1  0
 12 13  1  0
 13 14  1  0
 14 15  1  0
  4 16  1  0
 16 17  1  0
  6  1  1  0
 13  8  1  0
 17  3  1  0
 15 13  1  0
M  END
>  <inchikey>  (1649) 
MTADCMHQNSQSCA-UHFFFAOYSA-N

>  <tags>  (1649) 
fragmenstein_placed,CpKRS_FrAncestor_bulkdock_iter2

>  <ref_pdb>  (1649) 
x0654b

>  <energy_score>  (1649) 
-36.367621

>  <distance_score>  (1649) 
0.452571

>  <HIPPO Pose ID>  (1649) 
61446

>  <ref_mols>  (1649) 
x0675b

>  <smiles>  (1649) 
c1cc2c(cc1CN1CCOCC13CC3)CC2

>  <HIPPO Compound ID>  (1649) 
453207

>  <alias>  (1649) 
MTADCMHQNSQSCA-UHFFFAOYSA-N-P60

>  <subsites>  (1649) 


>  <placement_batch>  (1649) 
CpKRS_FrAncestor_bulkdock_iter2

>  <name>  (1649) 
MTADCMHQNSQSCA-UHFFFAOYSA-N-P60

$$$$
MHWLIZCLFRYWSQ-UHFFFAOYSA-N-P60
     RDKit          3D

 18 21  0  0  0  0  0  0  0  0999 V2000
   -1.3288  -26.0281   23.3758 C   0  0  0  0  0  0  0  0  0  0  0  0
   -1.4373  -24.7979   24.0322 C   0  0  0  0  0  0  0  0  0  0  0  0
   -2.1743  -24.7673   25.1912 C   0  0  0  0  0  0  0  0  0  0  0  0
   -2.7651  -25.8899   25.7119 C   0  0  0  0  0  0  0  0  0  0  0  0
   -2.6592  -27.1162   25.1070 C   0  0  0  0  0  0  0  0  0  0  0  0
   -1.9271  -27.1966   23.9098 C   0  0  0  0  0  0  0  0  0  0  0  0
   -1.8500  -28.5176   23.1777 C   0  0  0  0  0  0  0  0  0  0  0  0
   -0.5185  -29.1591   23.0140 N   0  0  0  0  0  0  0  0  0  0  0  0
   -0.7532  -30.4816   22.3658 C   0  0  0  0  0  0  0  0  0  0  0  0
   -0.9572  -31.6644   23.3443 C   0  0  0  0  0  0  0  0  0  0  0  0
   -1.5061  -31.2427   24.5962 O   0  0  0  0  0  0  0  0  0  0  0  0
   -0.6494  -30.2996   25.2773 C   0  0  0  0  0  0  0  0  0  0  0  0
    0.1689  -29.4345   24.3108 C   0  0  0  0  0  0  0  0  0  0  0  0
    0.9397  -28.1549   24.7900 C   0  0  0  0  0  0  0  0  0  0  0  0
    2.1459  -28.5742   23.9448 C   0  0  0  0  0  0  0  0  0  0  0  0
    1.6148  -30.0085   24.0098 C   0  0  0  0  0  0  0  0  0  0  0  0
   -3.3711  -25.1599   26.8693 C   0  0  0  0  0  0  0  0  0  0  0  0
   -2.6992  -23.8802   26.2752 C   0  0  0  0  0  0  0  0  0  0  0  0
  1  2  2  0
  2  3  1  0
  3  4  2  0
  4  5  1  0
  5  6  2  0
  6  7  1  0
  7  8  1  0
  8  9  1  0
  9 10  1  0
 10 11  1  0
 11 12  1  0
 12 13  1  0
 13 14  1  0
 14 15  1  0
 15 16  1  0
  4 17  1  0
 17 18  1  0
  6  1  1  0
 13  8  1  0
 18  3  1  0
 16 13  1  0
M  END
>  <inchikey>  (1650) 
MHWLIZCLFRYWSQ-UHFFFAOYSA-N

>  <tags>  (1650) 
fragmenstein_placed,CpKRS_FrAncestor_bulkdock_iter2

>  <ref_pdb>  (1650) 
x0654b

>  <energy_score>  (1650) 
-29.169111

>  <distance_score>  (1650) 
0.737792

>  <HIPPO Pose ID>  (1650) 
61448

>  <ref_mols>  (1650) 
x0675b

>  <smiles>  (1650) 
c1cc2c(cc1CN1CCOCC13CCC3)CC2

>  <HIPPO Compound ID>  (1650) 
453208

>  <alias>  (1650) 
MHWLIZCLFRYWSQ-UHFFFAOYSA-N-P60

>  <subsites>  (1650) 


>  <placement_batch>  (1650) 
CpKRS_FrAncestor_bulkdock_iter2

>  <name>  (1650) 
MHWLIZCLFRYWSQ-UHFFFAOYSA-N-P60

$$$$
YKAJXHXWXLPQTD-UHFFFAOYSA-N-P60
     RDKit          3D

 16 18  0  0  0  0  0  0  0  0999 V2000
   -0.9946  -26.0429   23.7395 C   0  0  0  0  0  0  0  0  0  0  0  0
   -1.2531  -24.7897   24.2988 C   0  0  0  0  0  0  0  0  0  0  0  0
   -2.3224  -24.6646   25.1656 C   0  0  0  0  0  0  0  0  0  0  0  0
   -3.1029  -25.7685   25.5155 C   0  0  0  0  0  0  0  0  0  0  0  0
   -2.8636  -27.0118   24.9625 C   0  0  0  0  0  0  0  0  0  0  0  0
   -1.8171  -27.1503   24.0350 C   0  0  0  0  0  0  0  0  0  0  0  0
   -1.6243  -28.4589   23.3000 C   0  0  0  0  0  0  0  0  0  0  0  0
   -0.5648  -29.3240   23.8410 N   0  0  0  0  0  0  0  0  0  0  0  0
   -0.3444  -30.4558   22.9015 C   0  0  0  0  0  0  0  0  0  0  0  0
   -0.1239  -31.8063   23.5996 C   0  0  0  0  0  0  0  0  0  0  0  0
   -1.2449  -32.1739   24.4153 O   0  0  0  0  0  0  0  0  0  0  0  0
   -1.7678  -31.0813   25.1815 C   0  0  0  0  0  0  0  0  0  0  0  0
   -0.8672  -29.8388   25.1887 C   0  0  0  0  0  0  0  0  0  0  0  0
   -4.1850  -25.3718   26.4693 C   0  0  0  0  0  0  0  0  0  0  0  0
   -4.2760  -23.8711   26.1654 C   0  0  0  0  0  0  0  0  0  0  0  0
   -2.8476  -23.4263   25.8176 C   0  0  0  0  0  0  0  0  0  0  0  0
  1  2  2  0
  2  3  1  0
  3  4  2  0
  4  5  1  0
  5  6  2  0
  6  7  1  0
  7  8  1  0
  8  9  1  0
  9 10  1  0
 10 11  1  0
 11 12  1  0
 12 13  1  0
  4 14  1  0
 14 15  1  0
 15 16  1  0
  6  1  1  0
 13  8  1  0
 16  3  1  0
M  END
>  <inchikey>  (1651) 
YKAJXHXWXLPQTD-UHFFFAOYSA-N

>  <tags>  (1651) 
fragmenstein_placed,CpKRS_FrAncestor_bulkdock_iter2

>  <ref_pdb>  (1651) 
x0654b

>  <energy_score>  (1651) 
-18.938296

>  <distance_score>  (1651) 
0.544284

>  <HIPPO Pose ID>  (1651) 
61450

>  <ref_mols>  (1651) 
x0675b

>  <smiles>  (1651) 
c1cc2c(cc1CN1CCOCC1)CCC2

>  <HIPPO Compound ID>  (1651) 
453209

>  <alias>  (1651) 
YKAJXHXWXLPQTD-UHFFFAOYSA-N-P60

>  <subsites>  (1651) 


>  <placement_batch>  (1651) 
CpKRS_FrAncestor_bulkdock_iter2

>  <name>  (1651) 
YKAJXHXWXLPQTD-UHFFFAOYSA-N-P60

$$$$
JGWMUNJWELZONM-UHFFFAOYSA-N-P60
     RDKit          3D

 18 21  0  0  0  0  0  0  0  0999 V2000
   -1.0438  -26.1691   23.6646 C   0  0  0  0  0  0  0  0  0  0  0  0
   -1.1448  -24.9233   24.2852 C   0  0  0  0  0  0  0  0  0  0  0  0
   -2.1456  -24.7548   25.2079 C   0  0  0  0  0  0  0  0  0  0  0  0
   -3.0432  -25.7475   25.5003 C   0  0  0  0  0  0  0  0  0  0  0  0
   -3.0124  -26.9630   24.8624 C   0  0  0  0  0  0  0  0  0  0  0  0
   -1.9833  -27.1927   23.9328 C   0  0  0  0  0  0  0  0  0  0  0  0
   -1.9105  -28.4986   23.1739 C   0  0  0  0  0  0  0  0  0  0  0  0
   -1.0624  -29.5504   23.7792 N   0  0  0  0  0  0  0  0  0  0  0  0
   -0.6239  -30.4652   22.6958 C   0  0  0  0  0  0  0  0  0  0  0  0
   -0.2656  -31.9048   23.0912 C   0  0  0  0  0  0  0  0  0  0  0  0
   -1.4345  -32.7310   23.1342 O   0  0  0  0  0  0  0  0  0  0  0  0
   -2.1552  -32.6682   24.3581 C   0  0  0  0  0  0  0  0  0  0  0  0
   -2.7463  -31.2893   24.6455 C   0  0  0  0  0  0  0  0  0  0  0  0
   -1.6753  -30.2559   24.9442 C   0  0  0  0  0  0  0  0  0  0  0  0
   -0.7273  -30.5842   26.0854 C   0  0  0  0  0  0  0  0  0  0  0  0
   -1.7625  -29.5270   26.2677 C   0  0  0  0  0  0  0  0  0  0  0  0
   -3.7706  -24.9253   26.5199 C   0  0  0  0  0  0  0  0  0  0  0  0
   -2.7766  -23.7769   26.1463 C   0  0  0  0  0  0  0  0  0  0  0  0
  1  2  2  0
  2  3  1  0
  3  4  2  0
  4  5  1  0
  5  6  2  0
  6  7  1  0
  7  8  1  0
  8  9  1  0
  9 10  1  0
 10 11  1  0
 11 12  1  0
 12 13  1  0
 13 14  1  0
 14 15  1  0
 15 16  1  0
  4 17  1  0
 17 18  1  0
  6  1  1  0
 14  8  1  0
 18  3  1  0
 16 14  1  0
M  END
>  <inchikey>  (1652) 
JGWMUNJWELZONM-UHFFFAOYSA-N

>  <tags>  (1652) 
fragmenstein_placed,CpKRS_FrAncestor_bulkdock_iter2

>  <ref_pdb>  (1652) 
x0654b

>  <energy_score>  (1652) 
-31.062056

>  <distance_score>  (1652) 
0.843574

>  <HIPPO Pose ID>  (1652) 
61452

>  <ref_mols>  (1652) 
x0675b

>  <smiles>  (1652) 
c1cc2c(cc1CN1CCOCCC13CC3)CC2

>  <HIPPO Compound ID>  (1652) 
453210

>  <alias>  (1652) 
JGWMUNJWELZONM-UHFFFAOYSA-N-P60

>  <subsites>  (1652) 


>  <placement_batch>  (1652) 
CpKRS_FrAncestor_bulkdock_iter2

>  <name>  (1652) 
JGWMUNJWELZONM-UHFFFAOYSA-N-P60

$$$$
IOVUKROWMYEZKE-UHFFFAOYSA-N-P60
     RDKit          3D

 19 22  0  0  0  0  0  0  0  0999 V2000
   -1.1114  -26.1686   23.6811 C   0  0  0  0  0  0  0  0  0  0  0  0
   -1.1982  -24.9059   24.2702 C   0  0  0  0  0  0  0  0  0  0  0  0
   -2.1451  -24.7296   25.2487 C   0  0  0  0  0  0  0  0  0  0  0  0
   -2.9833  -25.7385   25.6460 C   0  0  0  0  0  0  0  0  0  0  0  0
   -2.9470  -26.9814   25.0697 C   0  0  0  0  0  0  0  0  0  0  0  0
   -1.9980  -27.2046   24.0575 C   0  0  0  0  0  0  0  0  0  0  0  0
   -1.9565  -28.5404   23.3483 C   0  0  0  0  0  0  0  0  0  0  0  0
   -0.8854  -29.4355   23.8206 N   0  0  0  0  0  0  0  0  0  0  0  0
   -1.1219  -29.9171   25.1949 C   0  0  0  0  0  0  0  0  0  0  0  0
   -2.2442  -30.9474   25.3811 C   0  0  0  0  0  0  0  0  0  0  0  0
   -1.8119  -32.2330   24.9562 O   0  0  0  0  0  0  0  0  0  0  0  0
   -2.0590  -32.5530   23.5960 C   0  0  0  0  0  0  0  0  0  0  0  0
   -1.8321  -31.4537   22.5618 C   0  0  0  0  0  0  0  0  0  0  0  0
   -0.6388  -30.5596   22.8704 C   0  0  0  0  0  0  0  0  0  0  0  0
    0.1213  -29.9715   21.6239 C   0  0  0  0  0  0  0  0  0  0  0  0
    1.4406  -30.1898   22.3829 C   0  0  0  0  0  0  0  0  0  0  0  0
    0.7155  -31.2719   23.1996 C   0  0  0  0  0  0  0  0  0  0  0  0
   -3.6801  -24.8963   26.6679 C   0  0  0  0  0  0  0  0  0  0  0  0
   -2.7516  -23.7343   26.1856 C   0  0  0  0  0  0  0  0  0  0  0  0
  1  2  2  0
  2  3  1  0
  3  4  2  0
  4  5  1  0
  5  6  2  0
  6  7  1  0
  7  8  1  0
  8  9  1  0
  9 10  1  0
 10 11  1  0
 11 12  1  0
 12 13  1  0
 13 14  1  0
 14 15  1  0
 15 16  1  0
 16 17  1  0
  4 18  1  0
 18 19  1  0
  6  1  1  0
 14  8  1  0
 19  3  1  0
 17 14  1  0
M  END
>  <inchikey>  (1653) 
IOVUKROWMYEZKE-UHFFFAOYSA-N

>  <tags>  (1653) 
fragmenstein_placed,CpKRS_FrAncestor_bulkdock_iter2

>  <ref_pdb>  (1653) 
x0654b

>  <energy_score>  (1653) 
-39.774731

>  <distance_score>  (1653) 
0.643446

>  <HIPPO Pose ID>  (1653) 
61454

>  <ref_mols>  (1653) 
x0675b

>  <smiles>  (1653) 
c1cc2c(cc1CN1CCOCCC13CCC3)CC2

>  <HIPPO Compound ID>  (1653) 
453211

>  <alias>  (1653) 
IOVUKROWMYEZKE-UHFFFAOYSA-N-P60

>  <subsites>  (1653) 


>  <placement_batch>  (1653) 
CpKRS_FrAncestor_bulkdock_iter2

>  <name>  (1653) 
IOVUKROWMYEZKE-UHFFFAOYSA-N-P60

$$$$
XSHFTXFXZQVIJA-UHFFFAOYSA-N-P60
     RDKit          3D

 18 21  0  0  0  0  0  0  0  0999 V2000
   -1.1738  -24.7983   23.9013 C   0  0  0  0  0  0  0  0  0  0  0  0
   -1.8957  -24.4543   25.0435 C   0  0  0  0  0  0  0  0  0  0  0  0
   -2.6246  -25.4379   25.6843 C   0  0  0  0  0  0  0  0  0  0  0  0
   -2.6456  -26.7531   25.2035 C   0  0  0  0  0  0  0  0  0  0  0  0
   -1.9133  -27.1206   24.0718 C   0  0  0  0  0  0  0  0  0  0  0  0
   -1.8778  -28.5497   23.5745 C   0  0  0  0  0  0  0  0  0  0  0  0
   -0.5355  -29.1682   23.5997 N   0  0  0  0  0  0  0  0  0  0  0  0
    0.0289  -29.1588   24.9762 C   0  0  0  0  0  0  0  0  0  0  0  0
   -0.5533  -30.5557   25.2240 C   0  0  0  0  0  0  0  0  0  0  0  0
   -0.5917  -30.6588   23.6788 C   0  0  2  0  0  0  0  0  0  0  0  0
    0.5923  -31.3483   23.0270 C   0  0  0  0  0  0  0  0  0  0  0  0
    0.1218  -32.7952   23.0512 C   0  0  0  0  0  0  0  0  0  0  0  0
   -1.3183  -32.7848   23.0091 O   0  0  0  0  0  0  0  0  0  0  0  0
   -1.7596  -31.4224   23.0935 C   0  0  0  0  0  0  0  0  0  0  0  0
   -1.1767  -26.1167   23.4227 C   0  0  0  0  0  0  0  0  0  0  0  0
   -3.4702  -27.6162   26.1147 C   0  0  0  0  0  0  0  0  0  0  0  0
   -4.2793  -26.5686   26.8902 C   0  0  0  0  0  0  0  0  0  0  0  0
   -3.4140  -25.3070   26.9477 C   0  0  0  0  0  0  0  0  0  0  0  0
  1  2  2  0
  2  3  1  0
  3  4  2  0
  4  5  1  0
  5  6  1  0
  6  7  1  0
  7  8  1  0
  8  9  1  0
 10  9  1  1
 10 11  1  0
 11 12  1  0
 12 13  1  0
 13 14  1  0
  5 15  2  0
  4 16  1  0
 16 17  1  0
 17 18  1  0
 15  1  1  0
 18  3  1  0
 10  7  1  0
 14 10  1  0
M  END
>  <inchikey>  (1654) 
XSHFTXFXZQVIJA-UHFFFAOYSA-N

>  <tags>  (1654) 
fragmenstein_placed,CpKRS_FrAncestor_bulkdock_iter2

>  <ref_pdb>  (1654) 
x0654b

>  <energy_score>  (1654) 
-30.948727

>  <distance_score>  (1654) 
0.852369

>  <HIPPO Pose ID>  (1654) 
61456

>  <ref_mols>  (1654) 
x0675b

>  <smiles>  (1654) 
c1cc2c(c(CN3CCC34CCOC4)c1)CCC2

>  <HIPPO Compound ID>  (1654) 
453212

>  <alias>  (1654) 
XSHFTXFXZQVIJA-UHFFFAOYSA-N-P60

>  <subsites>  (1654) 


>  <placement_batch>  (1654) 
CpKRS_FrAncestor_bulkdock_iter2

>  <name>  (1654) 
XSHFTXFXZQVIJA-UHFFFAOYSA-N-P60

$$$$
IKDGRAVGUWCUHG-UHFFFAOYSA-N-P60
     RDKit          3D

 17 20  0  0  0  0  0  0  0  0999 V2000
   -1.0862  -24.8760   23.9744 C   0  0  0  0  0  0  0  0  0  0  0  0
   -1.8719  -24.4996   25.0633 C   0  0  0  0  0  0  0  0  0  0  0  0
   -2.6886  -25.4497   25.6461 C   0  0  0  0  0  0  0  0  0  0  0  0
   -2.7538  -26.7535   25.1427 C   0  0  0  0  0  0  0  0  0  0  0  0
   -1.9819  -27.1448   24.0467 C   0  0  0  0  0  0  0  0  0  0  0  0
   -2.0503  -28.5471   23.4880 C   0  0  0  0  0  0  0  0  0  0  0  0
   -0.8299  -29.3526   23.6934 N   0  0  0  0  0  0  0  0  0  0  0  0
   -0.4860  -29.4569   25.1471 C   0  0  0  0  0  0  0  0  0  0  0  0
   -1.2726  -30.7820   25.2437 C   0  0  0  0  0  0  0  0  0  0  0  0
   -1.1473  -30.7743   23.7492 C   0  0  0  0  0  0  0  0  0  0  0  0
   -2.1839  -31.4292   22.8899 C   0  0  0  0  0  0  0  0  0  0  0  0
   -1.2959  -32.5893   22.7494 O   0  0  0  0  0  0  0  0  0  0  0  0
   -0.1615  -31.7307   23.1315 C   0  0  0  0  0  0  0  0  0  0  0  0
   -1.1290  -26.1867   23.4781 C   0  0  0  0  0  0  0  0  0  0  0  0
   -3.7698  -27.5488   25.9108 C   0  0  0  0  0  0  0  0  0  0  0  0
   -3.9155  -26.7137   27.1877 C   0  0  0  0  0  0  0  0  0  0  0  0
   -3.6318  -25.2629   26.7900 C   0  0  0  0  0  0  0  0  0  0  0  0
  1  2  2  0
  2  3  1  0
  3  4  2  0
  4  5  1  0
  5  6  1  0
  6  7  1  0
  7  8  1  0
  8  9  1  0
  9 10  1  0
 10 11  1  0
 11 12  1  0
 12 13  1  0
  5 14  2  0
  4 15  1  0
 15 16  1  0
 16 17  1  0
 14  1  1  0
 17  3  1  0
 10  7  1  0
 13 10  1  0
M  END
>  <inchikey>  (1655) 
IKDGRAVGUWCUHG-UHFFFAOYSA-N

>  <tags>  (1655) 
fragmenstein_placed,CpKRS_FrAncestor_bulkdock_iter2

>  <ref_pdb>  (1655) 
x0654b

>  <energy_score>  (1655) 
-30.946196

>  <distance_score>  (1655) 
0.758539

>  <HIPPO Pose ID>  (1655) 
61458

>  <ref_mols>  (1655) 
x0675b

>  <smiles>  (1655) 
c1cc2c(c(CN3CCC34COC4)c1)CCC2

>  <HIPPO Compound ID>  (1655) 
453213

>  <alias>  (1655) 
IKDGRAVGUWCUHG-UHFFFAOYSA-N-P60

>  <subsites>  (1655) 


>  <placement_batch>  (1655) 
CpKRS_FrAncestor_bulkdock_iter2

>  <name>  (1655) 
IKDGRAVGUWCUHG-UHFFFAOYSA-N-P60

$$$$
FOWJRLNQHFPFDZ-UHFFFAOYSA-N-P60
     RDKit          3D

 16 18  0  0  0  0  0  0  0  0999 V2000
   -1.1807  -24.7660   24.3177 C   0  0  0  0  0  0  0  0  0  0  0  0
   -2.0024  -24.5328   25.4183 C   0  0  0  0  0  0  0  0  0  0  0  0
   -2.8095  -25.5619   25.8631 C   0  0  0  0  0  0  0  0  0  0  0  0
   -2.8112  -26.8123   25.2272 C   0  0  0  0  0  0  0  0  0  0  0  0
   -1.9749  -27.0695   24.1394 C   0  0  0  0  0  0  0  0  0  0  0  0
   -1.9540  -28.3931   23.4110 C   0  0  0  0  0  0  0  0  0  0  0  0
   -0.7759  -29.2274   23.7026 N   0  0  0  0  0  0  0  0  0  0  0  0
   -0.7305  -30.3658   22.7497 C   0  0  0  0  0  0  0  0  0  0  0  0
   -0.2952  -31.6915   23.3929 C   0  0  0  0  0  0  0  0  0  0  0  0
   -1.1891  -32.0901   24.4420 O   0  0  0  0  0  0  0  0  0  0  0  0
   -1.5811  -31.0029   25.2903 C   0  0  0  0  0  0  0  0  0  0  0  0
   -0.7531  -29.7260   25.0888 C   0  0  0  0  0  0  0  0  0  0  0  0
   -1.1477  -26.0231   23.6995 C   0  0  0  0  0  0  0  0  0  0  0  0
   -3.7811  -27.7311   25.9119 C   0  0  0  0  0  0  0  0  0  0  0  0
   -4.6469  -26.7385   26.7002 C   0  0  0  0  0  0  0  0  0  0  0  0
   -3.7498  -25.5400   27.0258 C   0  0  0  0  0  0  0  0  0  0  0  0
  1  2  2  0
  2  3  1  0
  3  4  2  0
  4  5  1  0
  5  6  1  0
  6  7  1  0
  7  8  1  0
  8  9  1  0
  9 10  1  0
 10 11  1  0
 11 12  1  0
  5 13  2  0
  4 14  1  0
 14 15  1  0
 15 16  1  0
 13  1  1  0
 16  3  1  0
 12  7  1  0
M  END
>  <inchikey>  (1656) 
FOWJRLNQHFPFDZ-UHFFFAOYSA-N

>  <tags>  (1656) 
fragmenstein_placed,CpKRS_FrAncestor_bulkdock_iter2

>  <ref_pdb>  (1656) 
x0654b

>  <energy_score>  (1656) 
-27.795856

>  <distance_score>  (1656) 
0.414522

>  <HIPPO Pose ID>  (1656) 
61460

>  <ref_mols>  (1656) 
x0675b

>  <smiles>  (1656) 
c1cc2c(c(CN3CCOCC3)c1)CCC2

>  <HIPPO Compound ID>  (1656) 
453214

>  <alias>  (1656) 
FOWJRLNQHFPFDZ-UHFFFAOYSA-N-P60

>  <subsites>  (1656) 


>  <placement_batch>  (1656) 
CpKRS_FrAncestor_bulkdock_iter2

>  <name>  (1656) 
FOWJRLNQHFPFDZ-UHFFFAOYSA-N-P60

$$$$
NHRCSKGDLGRFBI-UHFFFAOYSA-N-P60
     RDKit          3D

 18 21  0  0  0  0  0  0  0  0999 V2000
   -2.1829  -33.4386   22.6287 C   0  0  0  0  0  0  0  0  0  0  0  0
   -2.4026  -32.1470   22.8669 C   0  0  0  0  0  0  0  0  0  0  0  0
   -1.3211  -31.5989   23.7349 C   0  0  2  0  0  0  0  0  0  0  0  0
   -1.8253  -30.9370   25.0147 C   0  0  0  0  0  0  0  0  0  0  0  0
   -0.8513  -29.7856   25.2007 C   0  0  0  0  0  0  0  0  0  0  0  0
   -0.5569  -29.2859   23.8489 N   0  0  0  0  0  0  0  0  0  0  0  0
   -1.6299  -28.4489   23.2862 C   0  0  0  0  0  0  0  0  0  0  0  0
   -1.8063  -27.1229   23.9932 C   0  0  0  0  0  0  0  0  0  0  0  0
   -1.0089  -26.0135   23.6249 C   0  0  0  0  0  0  0  0  0  0  0  0
   -1.2000  -24.7648   24.2192 C   0  0  0  0  0  0  0  0  0  0  0  0
   -2.1571  -24.6725   25.1987 C   0  0  0  0  0  0  0  0  0  0  0  0
   -2.9116  -25.7482   25.5890 C   0  0  0  0  0  0  0  0  0  0  0  0
   -2.7756  -26.9809   25.0016 C   0  0  0  0  0  0  0  0  0  0  0  0
   -3.6680  -24.9697   26.6213 C   0  0  0  0  0  0  0  0  0  0  0  0
   -2.8408  -23.7323   26.1396 C   0  0  0  0  0  0  0  0  0  0  0  0
   -0.4221  -30.5363   23.0578 C   0  0  0  0  0  0  0  0  0  0  0  0
   -0.5378  -32.7501   24.1166 O   0  0  0  0  0  0  0  0  0  0  0  0
   -0.9463  -33.8729   23.3175 C   0  0  0  0  0  0  0  0  0  0  0  0
  1  2  2  0
  2  3  1  0
  3  4  1  1
  4  5  1  0
  5  6  1  0
  6  7  1  0
  7  8  1  0
  8  9  2  0
  9 10  1  0
 10 11  2  0
 11 12  1  0
 12 13  2  0
 12 14  1  0
 14 15  1  0
  6 16  1  0
  3 17  1  0
 17 18  1  0
 18  1  1  0
 16  3  1  0
 13  8  1  0
 15 11  1  0
M  END
>  <inchikey>  (1657) 
NHRCSKGDLGRFBI-UHFFFAOYSA-N

>  <tags>  (1657) 
fragmenstein_placed,CpKRS_FrAncestor_bulkdock_iter2

>  <ref_pdb>  (1657) 
x0654b

>  <energy_score>  (1657) 
-16.942013

>  <distance_score>  (1657) 
0.626954

>  <HIPPO Pose ID>  (1657) 
61462

>  <ref_mols>  (1657) 
x0675b

>  <smiles>  (1657) 
C1=CC2(CCN(Cc3ccc4c(c3)CC4)C2)OC1

>  <HIPPO Compound ID>  (1657) 
453215

>  <alias>  (1657) 
NHRCSKGDLGRFBI-UHFFFAOYSA-N-P60

>  <subsites>  (1657) 


>  <placement_batch>  (1657) 
CpKRS_FrAncestor_bulkdock_iter2

>  <name>  (1657) 
NHRCSKGDLGRFBI-UHFFFAOYSA-N-P60

$$$$
BRLFPSZTVJPIQS-UHFFFAOYSA-N-P59
     RDKit          3D

 15 17  0  0  0  0  0  0  0  0999 V2000
    2.6931  -22.4846   21.9270 C   0  0  0  0  0  0  0  0  0  0  0  0
    3.3520  -21.2636   22.1774 C   0  0  0  0  0  0  0  0  0  0  0  0
    4.5501  -21.3593   21.5191 C   0  0  0  0  0  0  0  0  0  0  0  0
    5.6170  -20.2773   21.4710 C   0  0  0  0  0  0  0  0  0  0  0  0
    6.8780  -20.5271   20.7065 C   0  0  0  0  0  0  0  0  0  0  0  0
    5.8041  -19.6458   20.1390 C   0  0  0  0  0  0  0  0  0  0  0  0
    4.7022  -22.5748   20.9351 O   0  0  0  0  0  0  0  0  0  0  0  0
    3.5794  -23.2731   21.2275 C   0  0  0  0  0  0  0  0  0  0  0  0
    3.5116  -24.6646   20.7356 C   0  0  0  0  0  0  0  0  0  0  0  0
    2.5769  -24.7572   19.6145 N   0  0  0  0  0  0  0  0  0  0  0  0
    3.1052  -24.1026   18.3975 C   0  0  0  0  0  0  0  0  0  0  0  0
    2.4063  -24.6309   17.1400 C   0  0  0  0  0  0  0  0  0  0  0  0
    2.6504  -26.0318   16.9284 O   0  0  0  0  0  0  0  0  0  0  0  0
    2.8340  -26.7592   18.1516 C   0  0  0  0  0  0  0  0  0  0  0  0
    2.1379  -26.1332   19.3564 C   0  0  0  0  0  0  0  0  0  0  0  0
  1  2  1  0
  2  3  2  0
  3  4  1  0
  4  5  1  0
  5  6  1  0
  3  7  1  0
  7  8  1  0
  8  9  1  0
  9 10  1  0
 10 11  1  0
 11 12  1  0
 12 13  1  0
 13 14  1  0
 14 15  1  0
  8  1  2  0
 15 10  1  0
  6  4  1  0
M  END
>  <inchikey>  (1658) 
BRLFPSZTVJPIQS-UHFFFAOYSA-N

>  <tags>  (1658) 
fragmenstein_placed,CpKRS_FrAncestor_bulkdock_iter2

>  <ref_pdb>  (1658) 
x0654b

>  <energy_score>  (1658) 
-32.278352

>  <distance_score>  (1658) 
0.92554

>  <HIPPO Pose ID>  (1658) 
61463

>  <ref_mols>  (1658) 
x0675a

>  <smiles>  (1658) 
c1cc(C2CC2)oc1CN1CCOCC1

>  <HIPPO Compound ID>  (1658) 
453216

>  <alias>  (1658) 
BRLFPSZTVJPIQS-UHFFFAOYSA-N-P59

>  <subsites>  (1658) 


>  <placement_batch>  (1658) 
CpKRS_FrAncestor_bulkdock_iter2

>  <name>  (1658) 
BRLFPSZTVJPIQS-UHFFFAOYSA-N-P59

$$$$
LMZKYEBCVULDJQ-UHFFFAOYSA-N-P60
     RDKit          3D

 18 21  0  0  0  0  0  0  0  0999 V2000
   -1.1373  -24.7837   24.1924 C   0  0  0  0  0  0  0  0  0  0  0  0
   -1.0738  -26.0601   23.6409 C   0  0  0  0  0  0  0  0  0  0  0  0
   -1.9429  -27.0526   24.0939 C   0  0  0  0  0  0  0  0  0  0  0  0
   -1.9650  -28.4262   23.4603 C   0  0  0  0  0  0  0  0  0  0  0  0
   -0.9020  -29.3337   23.9276 N   0  0  0  0  0  0  0  0  0  0  0  0
   -1.0680  -29.6789   25.3672 C   0  0  0  0  0  0  0  0  0  0  0  0
   -1.9230  -30.8902   24.9756 C   0  0  0  0  0  0  0  0  0  0  0  0
   -1.2123  -30.7613   23.6039 C   0  0  1  0  0  0  0  0  0  0  0  0
   -1.9987  -31.0973   22.3597 C   0  0  0  0  0  0  0  0  0  0  0  0
   -1.7896  -32.6040   22.2918 C   0  0  0  0  0  0  0  0  0  0  0  0
   -0.5443  -32.9021   22.9481 O   0  0  0  0  0  0  0  0  0  0  0  0
   -0.0034  -31.6748   23.4613 C   0  0  0  0  0  0  0  0  0  0  0  0
   -2.8447  -26.7465   25.1303 C   0  0  0  0  0  0  0  0  0  0  0  0
   -2.9190  -25.4714   25.7104 C   0  0  0  0  0  0  0  0  0  0  0  0
   -3.9134  -25.1630   26.8036 C   0  0  0  0  0  0  0  0  0  0  0  0
   -4.9923  -24.1305   26.5608 C   0  0  0  0  0  0  0  0  0  0  0  0
   -5.3606  -25.5784   26.6521 C   0  0  0  0  0  0  0  0  0  0  0  0
   -2.0398  -24.4983   25.2210 C   0  0  0  0  0  0  0  0  0  0  0  0
  1  2  2  0
  2  3  1  0
  3  4  1  0
  4  5  1  0
  5  6  1  0
  6  7  1  0
  8  7  1  1
  8  9  1  0
  9 10  1  0
 10 11  1  0
 11 12  1  0
  3 13  2  0
 13 14  1  0
 14 15  1  0
 15 16  1  0
 16 17  1  0
 14 18  2  0
 18  1  1  0
  8  5  1  0
 17 15  1  0
 12  8  1  0
M  END
>  <inchikey>  (1659) 
LMZKYEBCVULDJQ-UHFFFAOYSA-N

>  <tags>  (1659) 
fragmenstein_placed,CpKRS_FrAncestor_bulkdock_iter2

>  <ref_pdb>  (1659) 
x0654b

>  <energy_score>  (1659) 
-33.891276

>  <distance_score>  (1659) 
0.79902

>  <HIPPO Pose ID>  (1659) 
61466

>  <ref_mols>  (1659) 
x0675b

>  <smiles>  (1659) 
c1cc(CN2CCC23CCOC3)cc(C2CC2)c1

>  <HIPPO Compound ID>  (1659) 
453217

>  <alias>  (1659) 
LMZKYEBCVULDJQ-UHFFFAOYSA-N-P60

>  <subsites>  (1659) 


>  <placement_batch>  (1659) 
CpKRS_FrAncestor_bulkdock_iter2

>  <name>  (1659) 
LMZKYEBCVULDJQ-UHFFFAOYSA-N-P60

$$$$
FGHSUDOZQGWDOD-UHFFFAOYSA-N-P59
     RDKit          3D

 17 20  0  0  0  0  0  0  0  0999 V2000
    6.1595  -21.2798   20.6384 C   0  0  0  0  0  0  0  0  0  0  0  0
    5.6866  -22.5343   20.2919 C   0  0  0  0  0  0  0  0  0  0  0  0
    4.4187  -22.9590   20.7090 C   0  0  0  0  0  0  0  0  0  0  0  0
    3.8328  -24.2695   20.2421 C   0  0  0  0  0  0  0  0  0  0  0  0
    2.9957  -24.0341   19.0674 N   0  0  0  0  0  0  0  0  0  0  0  0
    3.8412  -23.7493   17.8695 C   0  0  0  0  0  0  0  0  0  0  0  0
    2.9328  -24.6835   17.0441 C   0  0  0  0  0  0  0  0  0  0  0  0
    2.5023  -25.2046   18.3890 C   0  0  0  0  0  0  0  0  0  0  0  0
    1.0540  -25.5679   18.5444 C   0  0  0  0  0  0  0  0  0  0  0  0
    1.4409  -26.9815   18.3820 O   0  0  0  0  0  0  0  0  0  0  0  0
    2.8115  -26.6150   18.7750 C   0  0  0  0  0  0  0  0  0  0  0  0
    3.6240  -22.0871   21.4683 C   0  0  0  0  0  0  0  0  0  0  0  0
    4.0630  -20.7984   21.7960 C   0  0  0  0  0  0  0  0  0  0  0  0
    3.2319  -19.7759   22.5142 C   0  0  0  0  0  0  0  0  0  0  0  0
    3.2232  -19.8117   24.0173 C   0  0  0  0  0  0  0  0  0  0  0  0
    1.9640  -20.0839   23.2429 C   0  0  0  0  0  0  0  0  0  0  0  0
    5.3413  -20.4286   21.3633 C   0  0  0  0  0  0  0  0  0  0  0  0
  1  2  2  0
  2  3  1  0
  3  4  1  0
  4  5  1  0
  5  6  1  0
  6  7  1  0
  7  8  1  0
  8  9  1  0
  9 10  1  0
 10 11  1  0
  3 12  2  0
 12 13  1  0
 13 14  1  0
 14 15  1  0
 15 16  1  0
 13 17  2  0
 17  1  1  0
  8  5  1  0
 16 14  1  0
 11  8  1  0
M  END
>  <inchikey>  (1660) 
FGHSUDOZQGWDOD-UHFFFAOYSA-N

>  <tags>  (1660) 
fragmenstein_placed,CpKRS_FrAncestor_bulkdock_iter2

>  <ref_pdb>  (1660) 
x0654b

>  <energy_score>  (1660) 
-26.958389

>  <distance_score>  (1660) 
0.849004

>  <HIPPO Pose ID>  (1660) 
61467

>  <ref_mols>  (1660) 
x0675a

>  <smiles>  (1660) 
c1cc(CN2CCC23COC3)cc(C2CC2)c1

>  <HIPPO Compound ID>  (1660) 
453218

>  <alias>  (1660) 
FGHSUDOZQGWDOD-UHFFFAOYSA-N-P59

>  <subsites>  (1660) 


>  <placement_batch>  (1660) 
CpKRS_FrAncestor_bulkdock_iter2

>  <name>  (1660) 
FGHSUDOZQGWDOD-UHFFFAOYSA-N-P59

$$$$
WTZBPTMWYPZDLB-UHFFFAOYSA-N-P60
     RDKit          3D

 16 18  0  0  0  0  0  0  0  0999 V2000
   -1.1813  -24.7701   24.3349 C   0  0  0  0  0  0  0  0  0  0  0  0
   -1.0668  -25.9916   23.6818 C   0  0  0  0  0  0  0  0  0  0  0  0
   -1.8737  -27.0622   24.0687 C   0  0  0  0  0  0  0  0  0  0  0  0
   -1.8125  -28.3785   23.3268 C   0  0  0  0  0  0  0  0  0  0  0  0
   -0.7065  -29.2568   23.7402 N   0  0  0  0  0  0  0  0  0  0  0  0
   -0.8501  -29.7711   25.1150 C   0  0  0  0  0  0  0  0  0  0  0  0
   -1.7110  -31.0385   25.2041 C   0  0  0  0  0  0  0  0  0  0  0  0
   -1.2244  -32.1257   24.4067 O   0  0  0  0  0  0  0  0  0  0  0  0
   -0.2359  -31.7232   23.4476 C   0  0  0  0  0  0  0  0  0  0  0  0
   -0.5979  -30.3871   22.7816 C   0  0  0  0  0  0  0  0  0  0  0  0
   -2.7684  -26.8882   25.1415 C   0  0  0  0  0  0  0  0  0  0  0  0
   -2.8852  -25.6739   25.8410 C   0  0  0  0  0  0  0  0  0  0  0  0
   -3.8483  -25.4598   26.9926 C   0  0  0  0  0  0  0  0  0  0  0  0
   -3.9473  -26.4735   28.1071 C   0  0  0  0  0  0  0  0  0  0  0  0
   -5.0990  -26.2884   27.1617 C   0  0  0  0  0  0  0  0  0  0  0  0
   -2.0663  -24.6206   25.4055 C   0  0  0  0  0  0  0  0  0  0  0  0
  1  2  2  0
  2  3  1  0
  3  4  1  0
  4  5  1  0
  5  6  1  0
  6  7  1  0
  7  8  1  0
  8  9  1  0
  9 10  1  0
  3 11  2  0
 11 12  1  0
 12 13  1  0
 13 14  1  0
 14 15  1  0
 12 16  2  0
 16  1  1  0
 10  5  1  0
 15 13  1  0
M  END
>  <inchikey>  (1661) 
WTZBPTMWYPZDLB-UHFFFAOYSA-N

>  <tags>  (1661) 
fragmenstein_placed,CpKRS_FrAncestor_bulkdock_iter2

>  <ref_pdb>  (1661) 
x0654b

>  <energy_score>  (1661) 
-16.949737

>  <distance_score>  (1661) 
0.403969

>  <HIPPO Pose ID>  (1661) 
61470

>  <ref_mols>  (1661) 
x0675b

>  <smiles>  (1661) 
c1cc(CN2CCOCC2)cc(C2CC2)c1

>  <HIPPO Compound ID>  (1661) 
453219

>  <alias>  (1661) 
WTZBPTMWYPZDLB-UHFFFAOYSA-N-P60

>  <subsites>  (1661) 


>  <placement_batch>  (1661) 
CpKRS_FrAncestor_bulkdock_iter2

>  <name>  (1661) 
WTZBPTMWYPZDLB-UHFFFAOYSA-N-P60

$$$$
HWFXGNUDHLMUPU-UHFFFAOYSA-N-P60
     RDKit          3D

 16 18  0  0  0  0  0  0  0  0999 V2000
   -1.1867  -24.7417   24.2817 C   0  0  0  0  0  0  0  0  0  0  0  0
   -1.1720  -25.9963   23.6541 C   0  0  0  0  0  0  0  0  0  0  0  0
   -1.9867  -27.0459   24.1124 C   0  0  0  0  0  0  0  0  0  0  0  0
   -1.9785  -28.3735   23.3932 C   0  0  0  0  0  0  0  0  0  0  0  0
   -0.7914  -29.2033   23.6585 N   0  0  0  0  0  0  0  0  0  0  0  0
   -0.6918  -29.6535   25.0537 C   0  0  0  0  0  0  0  0  0  0  0  0
   -1.6016  -30.8216   25.4451 C   0  0  0  0  0  0  0  0  0  0  0  0
   -1.2541  -32.3488   24.5136 S   0  0  0  0  0  0  0  0  0  0  0  0
   -0.1845  -31.6500   23.2075 C   0  0  0  0  0  0  0  0  0  0  0  0
   -0.7348  -30.3173   22.6860 C   0  0  0  0  0  0  0  0  0  0  0  0
   -2.7911  -26.7905   25.2220 C   0  0  0  0  0  0  0  0  0  0  0  0
   -2.7717  -25.5514   25.8502 C   0  0  0  0  0  0  0  0  0  0  0  0
   -1.9829  -24.5167   25.4029 C   0  0  0  0  0  0  0  0  0  0  0  0
   -3.6042  -25.4608   26.9372 O   0  0  0  0  0  0  0  0  0  0  0  0
   -4.4436  -26.6287   26.8100 C   0  0  0  0  0  0  0  0  0  0  0  0
   -3.7129  -27.6773   25.9719 C   0  0  0  0  0  0  0  0  0  0  0  0
  1  2  2  0
  2  3  1  0
  3  4  1  0
  4  5  1  0
  5  6  1  0
  6  7  1  0
  7  8  1  0
  8  9  1  0
  9 10  1  0
  3 11  2  0
 11 12  1  0
 12 13  2  0
 12 14  1  0
 14 15  1  0
 15 16  1  0
 13  1  1  0
 10  5  1  0
 16 11  1  0
M  END
>  <inchikey>  (1662) 
HWFXGNUDHLMUPU-UHFFFAOYSA-N

>  <tags>  (1662) 
fragmenstein_placed,CpKRS_FrAncestor_bulkdock_iter2

>  <ref_pdb>  (1662) 
x0654b

>  <energy_score>  (1662) 
-36.586518

>  <distance_score>  (1662) 
0.4402

>  <HIPPO Pose ID>  (1662) 
61472

>  <ref_mols>  (1662) 
x0675b

>  <smiles>  (1662) 
c1cc(CN2CCSCC2)c2c(c1)OCC2

>  <HIPPO Compound ID>  (1662) 
453220

>  <alias>  (1662) 
HWFXGNUDHLMUPU-UHFFFAOYSA-N-P60

>  <subsites>  (1662) 


>  <placement_batch>  (1662) 
CpKRS_FrAncestor_bulkdock_iter2

>  <name>  (1662) 
HWFXGNUDHLMUPU-UHFFFAOYSA-N-P60

$$$$
SZYCAPYHOAPTEG-FIBGUPNXSA-N-P10
     RDKit          3D

 19 20  0  0  0  0  0  0  0  0999 V2000
    4.2481   -7.8472   25.3311 H   0  0  0  0  0  0  0  0  0  0  0  0
    5.1794   -7.8570   24.7565 C   0  0  0  0  0  0  0  0  0  0  0  0
    5.9281   -8.4847   25.2474 H   0  0  0  0  0  0  0  0  0  0  0  0
    5.5683   -6.8351   24.7194 H   0  0  0  0  0  0  0  0  0  0  0  0
    4.9353   -8.2829   23.4190 O   0  0  0  0  0  0  0  0  0  0  0  0
    4.8006   -9.6362   23.2578 C   0  0  0  0  0  0  0  0  0  0  0  0
    5.1618  -10.1190   22.0049 C   0  0  0  0  0  0  0  0  0  0  0  0
    5.0838  -11.4829   21.7443 C   0  0  0  0  0  0  0  0  0  0  0  0
    4.6555  -12.3748   22.7212 C   0  0  0  0  0  0  0  0  0  0  0  0
    4.2819  -11.9014   23.9720 C   0  0  0  0  0  0  0  0  0  0  0  0
    3.9139  -12.7883   24.9820 N   0  0  0  0  0  0  0  0  0  0  0  0
    3.8201  -14.3422   24.9744 C   0  0  0  0  0  0  0  0  0  0  0  0
    3.9598  -15.0885   24.1163 O   0  0  0  0  0  0  0  0  0  0  0  0
    3.5414  -14.5843   26.4535 N   0  0  0  0  0  0  0  0  0  0  0  0
    1.9600  -14.6385   26.7507 C   0  0  0  0  0  0  0  0  0  0  0  0
    2.1935  -15.5209   27.9239 C   0  0  0  0  0  0  0  0  0  0  0  0
    1.6025  -15.8304   28.9339 O   0  0  0  0  0  0  0  0  0  0  0  0
    3.4663  -15.9045   27.2590 C   0  0  0  0  0  0  0  0  0  0  0  0
    4.3240  -10.5250   24.2286 C   0  0  0  0  0  0  0  0  0  0  0  0
  1  2  1  0
  2  3  1  0
  2  4  1  0
  2  5  1  0
  5  6  1  0
  6  7  2  0
  7  8  1  0
  8  9  2  0
  9 10  1  0
 10 11  1  0
 11 12  1  0
 12 13  2  0
 12 14  1  0
 14 15  1  0
 15 16  1  0
 16 17  2  0
 16 18  1  0
 10 19  2  0
 19  6  1  0
 18 14  1  0
M  ISO  3   1   2   3   2   4   2
M  END
>  <inchikey>  (1663) 
SZYCAPYHOAPTEG-UHFFFAOYSA-N

>  <tags>  (1663) 
fragmenstein_placed,CpKRS_FrAncestor_bulkdock_iter2

>  <ref_pdb>  (1663) 
x0654b

>  <energy_score>  (1663) 
-0.319797

>  <distance_score>  (1663) 
0.705089

>  <HIPPO Pose ID>  (1663) 
61495

>  <ref_mols>  (1663) 
x0419c

>  <smiles>  (1663) 
[2H]C([2H])([2H])Oc1cccc(NC(=O)N2CC(=O)C2)c1

>  <HIPPO Compound ID>  (1663) 
31524

>  <alias>  (1663) 
SZYCAPYHOAPTEG-FIBGUPNXSA-N-P10

>  <subsites>  (1663) 


>  <placement_batch>  (1663) 
CpKRS_FrAncestor_bulkdock_iter2

>  <name>  (1663) 
SZYCAPYHOAPTEG-FIBGUPNXSA-N-P10

$$$$
VVKLEWHVEJWLRR-UHFFFAOYSA-N-P7
     RDKit          3D

 11 12  0  0  0  0  0  0  0  0999 V2000
    3.6570  -11.3140   27.4587 C   0  0  0  0  0  0  0  0  0  0  0  0
    3.3319  -12.7653   27.1402 C   0  0  0  0  0  0  0  0  0  0  0  0
    2.7349  -12.9249   25.8281 N   0  0  0  0  0  0  0  0  0  0  0  0
    3.7155  -13.0696   24.7578 C   0  0  0  0  0  0  0  0  0  0  0  0
    4.9231  -12.1044   24.7392 C   0  0  0  0  0  0  0  0  0  0  0  0
    4.6236  -10.7440   25.2320 N   0  0  0  0  0  0  0  0  0  0  0  0
    5.4670   -9.7382   24.5557 C   0  0  0  0  0  0  0  0  0  0  0  0
    4.9934   -9.5386   23.0958 C   0  0  0  0  0  0  0  0  0  0  0  0
    4.2509   -8.3405   23.4382 O   0  0  0  0  0  0  0  0  0  0  0  0
    4.8721   -8.3260   24.7503 C   0  0  0  0  0  0  0  0  0  0  0  0
    4.8197  -10.6971   26.6908 C   0  0  0  0  0  0  0  0  0  0  0  0
  1  2  1  0
  2  3  1  0
  3  4  1  0
  4  5  1  0
  5  6  1  0
  6  7  1  0
  7  8  1  0
  8  9  1  0
  9 10  1  0
  6 11  1  0
 11  1  1  0
 10  7  1  0
M  END
>  <inchikey>  (1664) 
VVKLEWHVEJWLRR-UHFFFAOYSA-N

>  <tags>  (1664) 
fragmenstein_placed,CpKRS_FrAncestor_bulkdock_iter2

>  <ref_pdb>  (1664) 
x0654b

>  <energy_score>  (1664) 
-37.281558

>  <distance_score>  (1664) 
0.903479

>  <HIPPO Pose ID>  (1664) 
61513

>  <ref_mols>  (1664) 
x0414b

>  <smiles>  (1664) 
C1CNCCN(C2COC2)C1

>  <HIPPO Compound ID>  (1664) 
208605

>  <alias>  (1664) 
VVKLEWHVEJWLRR-UHFFFAOYSA-N-P7

>  <subsites>  (1664) 


>  <placement_batch>  (1664) 
CpKRS_FrAncestor_bulkdock_iter2

>  <name>  (1664) 
VVKLEWHVEJWLRR-UHFFFAOYSA-N-P7

$$$$
CKQVSKUDMIYZEA-UHFFFAOYSA-N-P6
     RDKit          3D

 12 13  0  0  0  0  0  0  0  0999 V2000
    3.9093  -13.2535   25.6059 C   0  0  0  0  0  0  0  0  0  0  0  0
    4.4475  -11.9269   25.0234 C   0  0  0  0  0  0  0  0  0  0  0  0
    4.9964  -11.0421   26.0540 N   0  0  0  0  0  0  0  0  0  0  0  0
    5.5971   -9.8153   25.5269 C   0  0  0  0  0  0  0  0  0  0  0  0
    4.6508   -8.8047   24.8565 C   0  0  0  0  0  0  0  0  0  0  0  0
    5.2375   -8.1025   23.7633 O   0  0  0  0  0  0  0  0  0  0  0  0
    5.7339   -8.9322   22.7031 C   0  0  0  0  0  0  0  0  0  0  0  0
    5.0226   -8.7377   21.4053 C   0  0  0  0  0  0  0  0  0  0  0  0
    4.8933  -10.0381   22.1234 C   0  0  0  0  0  0  0  0  0  0  0  0
    4.0139  -10.7751   27.1252 C   0  0  0  0  0  0  0  0  0  0  0  0
    2.8255  -11.7591   27.1859 C   0  0  0  0  0  0  0  0  0  0  0  0
    3.2284  -13.1274   26.8896 N   0  0  0  0  0  0  0  0  0  0  0  0
  1  2  1  0
  2  3  1  0
  3  4  1  0
  4  5  1  0
  5  6  1  0
  6  7  1  0
  7  8  1  0
  8  9  1  0
  3 10  1  0
 10 11  1  0
 11 12  1  0
 12  1  1  0
  9  7  1  0
M  END
>  <inchikey>  (1665) 
CKQVSKUDMIYZEA-UHFFFAOYSA-N

>  <tags>  (1665) 
fragmenstein_placed,CpKRS_FrAncestor_bulkdock_iter2

>  <ref_pdb>  (1665) 
x0654b

>  <energy_score>  (1665) 
-26.194997

>  <distance_score>  (1665) 
0.831172

>  <HIPPO Pose ID>  (1665) 
61514

>  <ref_mols>  (1665) 
x0414a

>  <smiles>  (1665) 
C1CN(CCOC2CC2)CCN1

>  <HIPPO Compound ID>  (1665) 
209674

>  <alias>  (1665) 
CKQVSKUDMIYZEA-UHFFFAOYSA-N-P6

>  <subsites>  (1665) 


>  <placement_batch>  (1665) 
CpKRS_FrAncestor_bulkdock_iter2

>  <name>  (1665) 
CKQVSKUDMIYZEA-UHFFFAOYSA-N-P6

$$$$
DYIJBWJWQJAHRH-UHFFFAOYSA-N-P7
     RDKit          3D

 11 12  0  0  0  0  0  0  0  0999 V2000
    3.8917  -10.9191   27.6118 C   0  0  0  0  0  0  0  0  0  0  0  0
    2.9771  -12.0755   27.2574 C   0  0  0  0  0  0  0  0  0  0  0  0
    3.7192  -13.1826   26.7545 O   0  0  0  0  0  0  0  0  0  0  0  0
    3.8040  -13.1682   25.3312 C   0  0  0  0  0  0  0  0  0  0  0  0
    4.8153  -12.1462   24.7838 C   0  0  0  0  0  0  0  0  0  0  0  0
    4.5737  -10.7546   25.2386 N   0  0  0  0  0  0  0  0  0  0  0  0
    5.3212   -9.7887   24.3890 C   0  0  0  0  0  0  0  0  0  0  0  0
    4.7508   -8.3522   24.6139 C   0  0  0  0  0  0  0  0  0  0  0  0
    3.6375   -8.6861   23.6620 N   0  0  0  0  0  0  0  0  0  0  0  0
    4.6120   -9.6187   23.0067 C   0  0  0  0  0  0  0  0  0  0  0  0
    5.0254  -10.6470   26.6392 C   0  0  0  0  0  0  0  0  0  0  0  0
  1  2  1  0
  2  3  1  0
  3  4  1  0
  4  5  1  0
  5  6  1  0
  6  7  1  0
  7  8  1  0
  8  9  1  0
  9 10  1  0
  6 11  1  0
 11  1  1  0
 10  7  1  0
M  END
>  <inchikey>  (1666) 
DYIJBWJWQJAHRH-UHFFFAOYSA-N

>  <tags>  (1666) 
fragmenstein_placed,CpKRS_FrAncestor_bulkdock_iter2

>  <ref_pdb>  (1666) 
x0654b

>  <energy_score>  (1666) 
-36.881856

>  <distance_score>  (1666) 
0.752627

>  <HIPPO Pose ID>  (1666) 
61517

>  <ref_mols>  (1666) 
x0414b

>  <smiles>  (1666) 
C1COCCN(C2CNC2)C1

>  <HIPPO Compound ID>  (1666) 
209498

>  <alias>  (1666) 
DYIJBWJWQJAHRH-UHFFFAOYSA-N-P7

>  <subsites>  (1666) 


>  <placement_batch>  (1666) 
CpKRS_FrAncestor_bulkdock_iter2

>  <name>  (1666) 
DYIJBWJWQJAHRH-UHFFFAOYSA-N-P7

$$$$
VFRHYRVNDUCODI-UHFFFAOYSA-N-P13
     RDKit          3D

 17 19  0  0  0  0  0  0  0  0999 V2000
    4.7523  -15.4613   26.6862 C   0  0  0  0  0  0  0  0  0  0  0  0
    3.4381  -14.7591   26.5023 C   0  0  0  0  0  0  0  0  0  0  0  0
    2.3410  -14.9588   27.3450 C   0  0  0  0  0  0  0  0  0  0  0  0
    2.4514  -16.0082   28.9230 Br  0  0  0  0  0  0  0  0  0  0  0  0
    1.1208  -14.3221   27.1113 C   0  0  0  0  0  0  0  0  0  0  0  0
    1.0231  -13.4576   26.0453 C   0  0  0  0  0  0  0  0  0  0  0  0
    2.0594  -13.1735   25.2407 N   0  0  0  0  0  0  0  0  0  0  0  0
    3.2356  -13.8398   25.4691 C   0  0  0  0  0  0  0  0  0  0  0  0
    4.3853  -13.3587   24.6146 C   0  0  0  0  0  0  0  0  0  0  0  0
    5.2497  -14.0748   24.3086 O   0  0  0  0  0  0  0  0  0  0  0  0
    4.2092  -11.8511   24.3759 N   0  0  0  0  0  0  0  0  0  0  0  0
    5.0956  -10.8950   23.7979 C   0  0  2  0  0  0  0  0  0  0  0  0
    4.8246   -9.4371   24.1890 C   0  0  0  0  0  0  0  0  0  0  0  0
    5.5953   -8.6705   23.1540 C   0  0  2  0  0  0  0  0  0  0  0  0
    4.9925   -8.2901   21.8397 C   0  0  0  0  0  0  0  0  0  0  0  0
    5.7649   -9.5652   21.9525 C   0  0  2  0  0  0  0  0  0  0  0  0
    5.1182  -10.8863   22.2653 C   0  0  0  0  0  0  0  0  0  0  0  0
  1  2  1  0
  2  3  2  0
  3  4  1  0
  3  5  1  0
  5  6  2  0
  6  7  1  0
  7  8  2  0
  8  9  1  0
  9 10  2  0
  9 11  1  0
 12 11  1  6
 12 13  1  0
 14 13  1  1
 14 15  1  0
 16 15  1  6
 16 17  1  0
  8  2  1  0
 17 12  1  0
 16 14  1  0
M  END
>  <inchikey>  (1667) 
VFRHYRVNDUCODI-UHFFFAOYSA-N

>  <tags>  (1667) 
fragmenstein_placed,CpKRS_FrAncestor_bulkdock_iter2

>  <ref_pdb>  (1667) 
x0654b

>  <energy_score>  (1667) 
-31.331627

>  <distance_score>  (1667) 
0.485591

>  <HIPPO Pose ID>  (1667) 
61532

>  <ref_mols>  (1667) 
x0421c

>  <smiles>  (1667) 
Cc1c(Br)ccnc1C(=O)NC1CC2CC2C1

>  <HIPPO Compound ID>  (1667) 
453232

>  <alias>  (1667) 
VFRHYRVNDUCODI-UHFFFAOYSA-N-P13

>  <subsites>  (1667) 


>  <placement_batch>  (1667) 
CpKRS_FrAncestor_bulkdock_iter2

>  <name>  (1667) 
VFRHYRVNDUCODI-UHFFFAOYSA-N-P13

$$$$
NEKBAQNUAHPCAV-UHFFFAOYSA-N-P13
     RDKit          3D

 16 17  0  0  0  0  0  0  0  0999 V2000
    4.8689  -15.3900   26.5897 C   0  0  0  0  0  0  0  0  0  0  0  0
    3.5435  -14.7001   26.4407 C   0  0  0  0  0  0  0  0  0  0  0  0
    2.4528  -14.9634   27.2774 C   0  0  0  0  0  0  0  0  0  0  0  0
    2.5896  -16.0903   28.8013 Br  0  0  0  0  0  0  0  0  0  0  0  0
    1.2173  -14.3447   27.0771 C   0  0  0  0  0  0  0  0  0  0  0  0
    1.0971  -13.4367   26.0504 C   0  0  0  0  0  0  0  0  0  0  0  0
    2.1224  -13.0963   25.2527 N   0  0  0  0  0  0  0  0  0  0  0  0
    3.3168  -13.7434   25.4463 C   0  0  0  0  0  0  0  0  0  0  0  0
    4.4355  -13.2268   24.5640 C   0  0  0  0  0  0  0  0  0  0  0  0
    5.3136  -13.9182   24.2386 O   0  0  0  0  0  0  0  0  0  0  0  0
    4.2013  -11.7268   24.3124 N   0  0  0  0  0  0  0  0  0  0  0  0
    5.0383  -10.7476   23.6933 C   0  0  0  0  0  0  0  0  0  0  0  0
    4.6389   -9.3106   23.9891 C   0  0  0  0  0  0  0  0  0  0  0  0
    5.4446   -8.5338   22.9601 C   0  0  0  0  0  0  0  0  0  0  0  0
    5.4817   -9.4307   21.7242 C   0  0  0  0  0  0  0  0  0  0  0  0
    5.0152  -10.8133   22.1745 C   0  0  0  0  0  0  0  0  0  0  0  0
  1  2  1  0
  2  3  2  0
  3  4  1  0
  3  5  1  0
  5  6  2  0
  6  7  1  0
  7  8  2  0
  8  9  1  0
  9 10  2  0
  9 11  1  0
 11 12  1  0
 12 13  1  0
 13 14  1  0
 14 15  1  0
 15 16  1  0
  8  2  1  0
 16 12  1  0
M  END
>  <inchikey>  (1668) 
NEKBAQNUAHPCAV-UHFFFAOYSA-N

>  <tags>  (1668) 
fragmenstein_placed,CpKRS_FrAncestor_bulkdock_iter2

>  <ref_pdb>  (1668) 
x0654b

>  <energy_score>  (1668) 
-1.747114

>  <distance_score>  (1668) 
0.467162

>  <HIPPO Pose ID>  (1668) 
61536

>  <ref_mols>  (1668) 
x0421c

>  <smiles>  (1668) 
Cc1c(Br)ccnc1C(=O)NC1CCCC1

>  <HIPPO Compound ID>  (1668) 
108435

>  <alias>  (1668) 
NEKBAQNUAHPCAV-UHFFFAOYSA-N-P13

>  <subsites>  (1668) 


>  <placement_batch>  (1668) 
CpKRS_FrAncestor_bulkdock_iter2

>  <name>  (1668) 
NEKBAQNUAHPCAV-UHFFFAOYSA-N-P13

$$$$
REYFQGGSRRAFOH-UHFFFAOYSA-N-P13
     RDKit          3D

 17 18  0  0  0  0  0  0  0  0999 V2000
    4.8936  -15.4081   26.6227 C   0  0  0  0  0  0  0  0  0  0  0  0
    3.5606  -14.7306   26.4970 C   0  0  0  0  0  0  0  0  0  0  0  0
    2.4803  -15.0172   27.3393 C   0  0  0  0  0  0  0  0  0  0  0  0
    2.6512  -16.1499   28.8536 Br  0  0  0  0  0  0  0  0  0  0  0  0
    1.2329  -14.4165   27.1567 C   0  0  0  0  0  0  0  0  0  0  0  0
    1.0890  -13.5013   26.1408 C   0  0  0  0  0  0  0  0  0  0  0  0
    2.1038  -13.1361   25.3418 N   0  0  0  0  0  0  0  0  0  0  0  0
    3.3118  -13.7655   25.5196 C   0  0  0  0  0  0  0  0  0  0  0  0
    4.4137  -13.2106   24.6385 C   0  0  0  0  0  0  0  0  0  0  0  0
    5.3112  -13.8671   24.2963 O   0  0  0  0  0  0  0  0  0  0  0  0
    4.1084  -11.7270   24.3782 N   0  0  0  0  0  0  0  0  0  0  0  0
    4.8913  -10.7113   23.7202 C   0  0  2  0  0  0  0  0  0  0  0  0
    4.6773   -9.3329   24.3671 C   0  0  0  0  0  0  0  0  0  0  0  0
    5.1311   -8.1868   23.5146 C   0  0  0  0  0  0  0  0  0  0  0  0
    5.4201   -8.3181   22.2150 C   0  0  0  0  0  0  0  0  0  0  0  0
    5.3407   -9.6248   21.4916 C   0  0  0  0  0  0  0  0  0  0  0  0
    4.5546  -10.6958   22.2350 C   0  0  0  0  0  0  0  0  0  0  0  0
  1  2  1  0
  2  3  2  0
  3  4  1  0
  3  5  1  0
  5  6  2  0
  6  7  1  0
  7  8  2  0
  8  9  1  0
  9 10  2  0
  9 11  1  0
 12 11  1  1
 12 13  1  0
 13 14  1  0
 14 15  2  0
 15 16  1  0
 16 17  1  0
  8  2  1  0
 17 12  1  0
M  END
>  <inchikey>  (1669) 
REYFQGGSRRAFOH-UHFFFAOYSA-N

>  <tags>  (1669) 
fragmenstein_placed,CpKRS_FrAncestor_bulkdock_iter2

>  <ref_pdb>  (1669) 
x0654b

>  <energy_score>  (1669) 
-30.598952

>  <distance_score>  (1669) 
0.538943

>  <HIPPO Pose ID>  (1669) 
61540

>  <ref_mols>  (1669) 
x0421c

>  <smiles>  (1669) 
Cc1c(Br)ccnc1C(=O)NC1CC=CCC1

>  <HIPPO Compound ID>  (1669) 
453233

>  <alias>  (1669) 
REYFQGGSRRAFOH-UHFFFAOYSA-N-P13

>  <subsites>  (1669) 


>  <placement_batch>  (1669) 
CpKRS_FrAncestor_bulkdock_iter2

>  <name>  (1669) 
REYFQGGSRRAFOH-UHFFFAOYSA-N-P13

$$$$
WECGAGSOHCQBTD-UHFFFAOYSA-N-P14
     RDKit          3D

 17 19  0  0  0  0  0  0  0  0999 V2000
    4.4320  -15.7181   27.3663 C   0  0  0  0  0  0  0  0  0  0  0  0
    3.3394  -14.7984   26.9837 C   0  0  0  0  0  0  0  0  0  0  0  0
    2.0991  -14.5651   27.6062 C   0  0  0  0  0  0  0  0  0  0  0  0
    1.6029  -15.2903   29.2553 Br  0  0  0  0  0  0  0  0  0  0  0  0
    1.3342  -13.6879   26.9601 N   0  0  0  0  0  0  0  0  0  0  0  0
    2.1186  -13.2500   25.9128 O   0  0  0  0  0  0  0  0  0  0  0  0
    3.3362  -13.8686   25.9626 C   0  0  0  0  0  0  0  0  0  0  0  0
    4.3940  -13.3845   25.0980 C   0  0  0  0  0  0  0  0  0  0  0  0
    5.4497  -13.8739   25.1029 O   0  0  0  0  0  0  0  0  0  0  0  0
    3.8747  -12.1508   24.3528 N   0  0  0  0  0  0  0  0  0  0  0  0
    4.5560  -11.2121   23.5394 C   0  0  1  0  0  0  0  0  0  0  0  0
    4.0673  -11.1066   22.1071 C   0  0  0  0  0  0  0  0  0  0  0  0
    4.6746   -9.7810   21.6330 C   0  0  0  0  0  0  0  0  0  0  0  0
    4.9046   -8.9999   22.9107 C   0  0  0  0  0  0  0  0  0  0  0  0
    5.1591   -7.5156   22.9527 C   0  0  0  0  0  0  0  0  0  0  0  0
    6.2875   -8.4712   23.0955 C   0  0  0  0  0  0  0  0  0  0  0  0
    4.3759   -9.7859   24.0589 C   0  0  0  0  0  0  0  0  0  0  0  0
  1  2  1  0
  2  3  1  0
  3  4  1  0
  3  5  2  0
  5  6  1  0
  6  7  1  0
  7  8  1  0
  8  9  2  0
  8 10  1  0
 11 10  1  1
 11 12  1  0
 12 13  1  0
 13 14  1  0
 14 15  1  0
 15 16  1  0
 14 17  1  0
  7  2  2  0
 17 11  1  0
 16 14  1  0
M  END
>  <inchikey>  (1670) 
WECGAGSOHCQBTD-UHFFFAOYSA-N

>  <tags>  (1670) 
fragmenstein_placed,CpKRS_FrAncestor_bulkdock_iter2

>  <ref_pdb>  (1670) 
x0654b

>  <energy_score>  (1670) 
-5.069664

>  <distance_score>  (1670) 
0.549202

>  <HIPPO Pose ID>  (1670) 
61557

>  <ref_mols>  (1670) 
x0421d

>  <smiles>  (1670) 
Cc1c(Br)noc1C(=O)NC1CCC2(CC2)C1

>  <HIPPO Compound ID>  (1670) 
453234

>  <alias>  (1670) 
WECGAGSOHCQBTD-UHFFFAOYSA-N-P14

>  <subsites>  (1670) 


>  <placement_batch>  (1670) 
CpKRS_FrAncestor_bulkdock_iter2

>  <name>  (1670) 
WECGAGSOHCQBTD-UHFFFAOYSA-N-P14

$$$$
JALOBZOZOWPXQL-UHFFFAOYSA-N-P13
     RDKit          3D

 16 17  0  0  0  0  0  0  0  0999 V2000
    4.5912  -15.6822   26.8565 C   0  0  0  0  0  0  0  0  0  0  0  0
    3.4710  -14.7654   26.5518 C   0  0  0  0  0  0  0  0  0  0  0  0
    2.2297  -14.6193   27.2055 C   0  0  0  0  0  0  0  0  0  0  0  0
    1.7523  -15.5049   28.7957 Br  0  0  0  0  0  0  0  0  0  0  0  0
    1.4511  -13.6897   26.6517 N   0  0  0  0  0  0  0  0  0  0  0  0
    2.2278  -13.1286   25.6524 O   0  0  0  0  0  0  0  0  0  0  0  0
    3.4475  -13.7419   25.6209 C   0  0  0  0  0  0  0  0  0  0  0  0
    4.4895  -13.1923   24.7675 C   0  0  0  0  0  0  0  0  0  0  0  0
    5.3978  -13.8428   24.4385 O   0  0  0  0  0  0  0  0  0  0  0  0
    4.1935  -11.7006   24.5312 N   0  0  0  0  0  0  0  0  0  0  0  0
    4.9076  -10.7149   23.7582 C   0  0  2  0  0  0  0  0  0  0  0  0
    4.7345   -9.3082   24.3581 C   0  0  0  0  0  0  0  0  0  0  0  0
    5.1649   -8.2061   23.4386 C   0  0  0  0  0  0  0  0  0  0  0  0
    5.3960   -8.3993   22.1349 C   0  0  0  0  0  0  0  0  0  0  0  0
    5.2576   -9.7346   21.4733 C   0  0  0  0  0  0  0  0  0  0  0  0
    4.4802  -10.7563   22.2975 C   0  0  0  0  0  0  0  0  0  0  0  0
  1  2  1  0
  2  3  1  0
  3  4  1  0
  3  5  2  0
  5  6  1  0
  6  7  1  0
  7  8  1  0
  8  9  2  0
  8 10  1  0
 11 10  1  1
 11 12  1  0
 12 13  1  0
 13 14  2  0
 14 15  1  0
 15 16  1  0
  7  2  2  0
 16 11  1  0
M  END
>  <inchikey>  (1671) 
JALOBZOZOWPXQL-UHFFFAOYSA-N

>  <tags>  (1671) 
fragmenstein_placed,CpKRS_FrAncestor_bulkdock_iter2

>  <ref_pdb>  (1671) 
x0654b

>  <energy_score>  (1671) 
-12.96657

>  <distance_score>  (1671) 
0.387447

>  <HIPPO Pose ID>  (1671) 
61560

>  <ref_mols>  (1671) 
x0421c

>  <smiles>  (1671) 
Cc1c(Br)noc1C(=O)NC1CC=CCC1

>  <HIPPO Compound ID>  (1671) 
453235

>  <alias>  (1671) 
JALOBZOZOWPXQL-UHFFFAOYSA-N-P13

>  <subsites>  (1671) 


>  <placement_batch>  (1671) 
CpKRS_FrAncestor_bulkdock_iter2

>  <name>  (1671) 
JALOBZOZOWPXQL-UHFFFAOYSA-N-P13

$$$$
DQUPOJFPMNCIQH-UHFFFAOYSA-N-P13
     RDKit          3D

 17 18  0  0  0  0  0  0  0  0999 V2000
    4.7078  -15.5371   26.7589 C   0  0  0  0  0  0  0  0  0  0  0  0
    3.4855  -14.7175   26.5974 C   0  0  0  0  0  0  0  0  0  0  0  0
    2.2886  -14.7534   27.3412 C   0  0  0  0  0  0  0  0  0  0  0  0
    2.0462  -15.7720   28.9005 Br  0  0  0  0  0  0  0  0  0  0  0  0
    1.3695  -13.8929   26.9048 N   0  0  0  0  0  0  0  0  0  0  0  0
    2.0032  -13.1836   25.9017 O   0  0  0  0  0  0  0  0  0  0  0  0
    3.2842  -13.6355   25.7587 C   0  0  0  0  0  0  0  0  0  0  0  0
    4.1850  -12.9031   24.8843 C   0  0  0  0  0  0  0  0  0  0  0  0
    5.2094  -13.3610   24.5674 O   0  0  0  0  0  0  0  0  0  0  0  0
    3.5781  -11.5142   24.5941 N   0  0  0  0  0  0  0  0  0  0  0  0
    4.0657  -10.4290   23.7709 C   0  0  0  0  0  0  0  0  0  0  0  0
    5.2635   -9.7399   24.4317 C   0  0  0  0  0  0  0  0  0  0  0  0
    5.4848   -8.2819   24.0416 C   0  0  0  0  0  0  0  0  0  0  0  0
    5.3429   -7.9119   22.6095 C   0  0  0  0  0  0  0  0  0  0  0  0
    5.2475   -8.7350   21.5645 C   0  0  0  0  0  0  0  0  0  0  0  0
    5.3852  -10.2112   21.5705 C   0  0  0  0  0  0  0  0  0  0  0  0
    4.3632  -10.9762   22.3779 C   0  0  0  0  0  0  0  0  0  0  0  0
  1  2  1  0
  2  3  1  0
  3  4  1  0
  3  5  2  0
  5  6  1  0
  6  7  1  0
  7  8  1  0
  8  9  2  0
  8 10  1  0
 10 11  1  0
 11 12  1  0
 12 13  1  0
 13 14  1  0
 14 15  2  0
 15 16  1  0
 16 17  1  0
  7  2  2  0
 17 11  1  0
M  END
>  <inchikey>  (1672) 
DQUPOJFPMNCIQH-UHFFFAOYSA-N

>  <tags>  (1672) 
fragmenstein_placed,CpKRS_FrAncestor_bulkdock_iter2

>  <ref_pdb>  (1672) 
x0654b

>  <energy_score>  (1672) 
-8.107396

>  <distance_score>  (1672) 
0.639152

>  <HIPPO Pose ID>  (1672) 
61564

>  <ref_mols>  (1672) 
x0421c

>  <smiles>  (1672) 
Cc1c(Br)noc1C(=O)NC1CCC=CCC1

>  <HIPPO Compound ID>  (1672) 
453236

>  <alias>  (1672) 
DQUPOJFPMNCIQH-UHFFFAOYSA-N-P13

>  <subsites>  (1672) 


>  <placement_batch>  (1672) 
CpKRS_FrAncestor_bulkdock_iter2

>  <name>  (1672) 
DQUPOJFPMNCIQH-UHFFFAOYSA-N-P13

$$$$
MUVXEPVMOSEVPC-UHFFFAOYSA-N-P38
     RDKit          3D

 15 15  0  0  0  0  0  0  0  0999 V2000
    1.6099  -12.3399   24.9011 C   0  0  0  0  0  0  0  0  0  0  0  0
    2.6364  -13.2541   25.4469 C   0  0  0  0  0  0  0  0  0  0  0  0
    2.5422  -14.1656   26.5181 C   0  0  0  0  0  0  0  0  0  0  0  0
    1.0354  -14.4097   27.5821 Br  0  0  0  0  0  0  0  0  0  0  0  0
    3.6650  -14.8390   26.7458 N   0  0  0  0  0  0  0  0  0  0  0  0
    4.5296  -14.4255   25.7507 O   0  0  0  0  0  0  0  0  0  0  0  0
    3.9240  -13.4714   24.9892 C   0  0  0  0  0  0  0  0  0  0  0  0
    4.6874  -12.9142   23.8933 C   0  0  0  0  0  0  0  0  0  0  0  0
    5.0776  -13.5904   23.0392 O   0  0  0  0  0  0  0  0  0  0  0  0
    4.8345  -11.4157   24.1100 N   0  0  0  0  0  0  0  0  0  0  0  0
    5.5706  -10.4416   23.3751 C   0  0  0  0  0  0  0  0  0  0  0  0
    4.8446   -9.1179   23.1583 C   0  0  0  0  0  0  0  0  0  0  0  0
    3.3186   -9.2728   23.1556 C   0  0  0  0  0  0  0  0  0  0  0  0
    5.2681   -8.1524   24.2719 C   0  0  0  0  0  0  0  0  0  0  0  0
    5.3037   -8.5678   21.8043 C   0  0  0  0  0  0  0  0  0  0  0  0
  1  2  1  0
  2  3  1  0
  3  4  1  0
  3  5  2  0
  5  6  1  0
  6  7  1  0
  7  8  1  0
  8  9  2  0
  8 10  1  0
 10 11  1  0
 11 12  1  0
 12 13  1  0
 12 14  1  0
 12 15  1  0
  7  2  2  0
M  END
>  <inchikey>  (1673) 
MUVXEPVMOSEVPC-UHFFFAOYSA-N

>  <tags>  (1673) 
fragmenstein_placed,CpKRS_FrAncestor_bulkdock_iter2

>  <ref_pdb>  (1673) 
x0654b

>  <energy_score>  (1673) 
-8.85233

>  <distance_score>  (1673) 
0.921606

>  <HIPPO Pose ID>  (1673) 
61574

>  <ref_mols>  (1673) 
x0555a

>  <smiles>  (1673) 
Cc1c(Br)noc1C(=O)NCC(C)(C)C

>  <HIPPO Compound ID>  (1673) 
453237

>  <alias>  (1673) 
MUVXEPVMOSEVPC-UHFFFAOYSA-N-P38

>  <subsites>  (1673) 


>  <placement_batch>  (1673) 
CpKRS_FrAncestor_bulkdock_iter2

>  <name>  (1673) 
MUVXEPVMOSEVPC-UHFFFAOYSA-N-P38

$$$$
MTADNDLYVCIONH-UHFFFAOYSA-N-P20
     RDKit          3D

 15 16  0  0  0  0  0  0  0  0999 V2000
    1.7489    4.4431   47.7696 C   0  0  0  0  0  0  0  0  0  0  0  0
    2.3730    4.4935   46.6231 C   0  0  0  0  0  0  0  0  0  0  0  0
    3.4967    4.1046   45.8803 C   0  0  0  0  0  0  0  0  0  0  0  0
    2.3124    4.9827   45.3136 C   0  0  2  0  0  0  0  0  0  0  0  0
    2.5315    6.4046   44.9697 C   0  0  0  0  0  0  0  0  0  0  0  0
    3.2607    6.5059   43.7378 N   0  0  0  0  0  0  0  0  0  0  0  0
    3.6851    5.4157   42.7316 C   0  0  0  0  0  0  0  0  0  0  0  0
    3.5762    4.2552   42.7833 O   0  0  0  0  0  0  0  0  0  0  0  0
    4.4201    6.0581   41.5932 C   0  0  0  0  0  0  0  0  0  0  0  0
    5.1237    5.2662   40.6972 C   0  0  0  0  0  0  0  0  0  0  0  0
    5.8607    5.9080   39.7158 C   0  0  0  0  0  0  0  0  0  0  0  0
    5.8731    7.2986   39.6688 C   0  0  0  0  0  0  0  0  0  0  0  0
    5.1509    8.0187   40.6169 C   0  0  0  0  0  0  0  0  0  0  0  0
    5.1535    9.5150   40.5818 C   0  0  0  0  0  0  0  0  0  0  0  0
    4.4337    7.4237   41.5956 N   0  0  0  0  0  0  0  0  0  0  0  0
  1  2  2  0
  2  3  1  0
  3  4  1  0
  4  5  1  1
  5  6  1  0
  6  7  1  0
  7  8  2  0
  7  9  1  0
  9 10  2  0
 10 11  1  0
 11 12  2  0
 12 13  1  0
 13 14  1  0
 13 15  2  0
  4  2  1  0
 15  9  1  0
M  END
>  <inchikey>  (1674) 
MTADNDLYVCIONH-UHFFFAOYSA-N

>  <tags>  (1674) 
fragmenstein_placed,CpKRS_FrAncestor_bulkdock_iter2

>  <ref_pdb>  (1674) 
x0654b

>  <energy_score>  (1674) 
-5.151722

>  <distance_score>  (1674) 
0.766467

>  <HIPPO Pose ID>  (1674) 
61576

>  <ref_mols>  (1674) 
x0456a

>  <smiles>  (1674) 
C=C1CC1CNC(=O)c1cccc(C)n1

>  <HIPPO Compound ID>  (1674) 
453238

>  <alias>  (1674) 
MTADNDLYVCIONH-UHFFFAOYSA-N-P20

>  <subsites>  (1674) 


>  <placement_batch>  (1674) 
CpKRS_FrAncestor_bulkdock_iter2

>  <name>  (1674) 
MTADNDLYVCIONH-UHFFFAOYSA-N-P20

$$$$
JEJGPDCKHLNBTL-UHFFFAOYSA-N-P20
     RDKit          3D

 14 15  0  0  0  0  0  0  0  0999 V2000
    1.2471    4.4445   47.2251 C   0  0  0  0  0  0  0  0  0  0  0  0
    2.6858    4.6586   47.0287 C   0  0  1  0  0  0  0  0  0  0  0  0
    3.4024    4.1174   45.8307 C   0  0  0  0  0  0  0  0  0  0  0  0
    3.2056    5.6136   45.9811 C   0  0  1  0  0  0  0  0  0  0  0  0
    2.3004    6.3488   45.0398 C   0  0  0  0  0  0  0  0  0  0  0  0
    2.9704    6.5071   43.7902 N   0  0  0  0  0  0  0  0  0  0  0  0
    3.4137    5.4618   42.7564 C   0  0  0  0  0  0  0  0  0  0  0  0
    3.2355    4.3111   42.7217 O   0  0  0  0  0  0  0  0  0  0  0  0
    4.2655    6.1292   41.7528 C   0  0  0  0  0  0  0  0  0  0  0  0
    5.0503    5.5022   40.7483 C   0  0  0  0  0  0  0  0  0  0  0  0
    5.6739    6.5287   40.0840 C   0  0  0  0  0  0  0  0  0  0  0  0
    5.2571    7.6762   40.6912 N   0  0  0  0  0  0  0  0  0  0  0  0
    5.5911    9.0284   40.3192 C   0  0  0  0  0  0  0  0  0  0  0  0
    4.4500    7.4682   41.7519 N   0  0  0  0  0  0  0  0  0  0  0  0
  2  1  1  6
  2  3  1  0
  3  4  1  0
  4  5  1  6
  5  6  1  0
  6  7  1  0
  7  8  2  0
  7  9  1  0
  9 10  1  0
 10 11  2  0
 11 12  1  0
 12 13  1  0
 12 14  1  0
  4  2  1  0
 14  9  2  0
M  END
>  <inchikey>  (1675) 
JEJGPDCKHLNBTL-UHFFFAOYSA-N

>  <tags>  (1675) 
fragmenstein_placed,CpKRS_FrAncestor_bulkdock_iter2

>  <ref_pdb>  (1675) 
x0654b

>  <energy_score>  (1675) 
-6.893101

>  <distance_score>  (1675) 
0.655791

>  <HIPPO Pose ID>  (1675) 
61577

>  <ref_mols>  (1675) 
x0456a

>  <smiles>  (1675) 
CC1CC1CNC(=O)c1ccn(C)n1

>  <HIPPO Compound ID>  (1675) 
30849

>  <alias>  (1675) 
JEJGPDCKHLNBTL-UHFFFAOYSA-N-P20

>  <subsites>  (1675) 


>  <placement_batch>  (1675) 
CpKRS_FrAncestor_bulkdock_iter2

>  <name>  (1675) 
JEJGPDCKHLNBTL-UHFFFAOYSA-N-P20

$$$$
UAULXIMAZSEKBR-UHFFFAOYSA-N-P45
     RDKit          3D

 13 14  0  0  0  0  0  0  0  0999 V2000
    5.6148   -8.3283   24.1660 C   0  0  0  0  0  0  0  0  0  0  0  0
    4.6305   -9.0170   23.2866 C   0  0  1  0  0  0  0  0  0  0  0  0
    5.0632   -9.5652   21.9560 C   0  0  0  0  0  0  0  0  0  0  0  0
    4.7254  -10.5125   23.0878 C   0  0  2  0  0  0  0  0  0  0  0  0
    3.5143  -11.3786   22.9795 C   0  0  0  0  0  0  0  0  0  0  0  0
    3.2812  -12.1442   24.1681 N   0  0  0  0  0  0  0  0  0  0  0  0
    4.1661  -13.1858   24.8761 C   0  0  0  0  0  0  0  0  0  0  0  0
    5.2555  -13.5300   24.6491 O   0  0  0  0  0  0  0  0  0  0  0  0
    3.4030  -13.8071   25.9462 C   0  0  0  0  0  0  0  0  0  0  0  0
    3.6944  -14.8579   26.7904 C   0  0  0  0  0  0  0  0  0  0  0  0
    2.6701  -15.0568   27.6834 N   0  0  0  0  0  0  0  0  0  0  0  0
    1.7947  -14.1471   27.3331 C   0  0  0  0  0  0  0  0  0  0  0  0
    2.1432  -13.3558   26.2817 O   0  0  0  0  0  0  0  0  0  0  0  0
  2  1  1  1
  2  3  1  0
  3  4  1  0
  4  5  1  6
  5  6  1  0
  6  7  1  0
  7  8  2  0
  7  9  1  0
  9 10  2  0
 10 11  1  0
 11 12  2  0
 12 13  1  0
  4  2  1  0
 13  9  1  0
M  END
>  <inchikey>  (1676) 
UAULXIMAZSEKBR-UHFFFAOYSA-N

>  <tags>  (1676) 
fragmenstein_placed,CpKRS_FrAncestor_bulkdock_iter2

>  <ref_pdb>  (1676) 
x0654b

>  <energy_score>  (1676) 
-5.960622

>  <distance_score>  (1676) 
0.558474

>  <HIPPO Pose ID>  (1676) 
61580

>  <ref_mols>  (1676) 
x0502a

>  <smiles>  (1676) 
CC1CC1CNC(=O)c1cnco1

>  <HIPPO Compound ID>  (1676) 
30850

>  <alias>  (1676) 
UAULXIMAZSEKBR-UHFFFAOYSA-N-P45

>  <subsites>  (1676) 


>  <placement_batch>  (1676) 
CpKRS_FrAncestor_bulkdock_iter2

>  <name>  (1676) 
UAULXIMAZSEKBR-UHFFFAOYSA-N-P45

$$$$
VXANBZKCBDWQTN-UHFFFAOYSA-N-P44
     RDKit          3D

 13 14  0  0  0  0  0  0  0  0999 V2000
  -12.6981  -17.8457   43.2140 C   0  0  0  0  0  0  0  0  0  0  0  0
  -13.0987  -16.7444   44.1283 C   0  0  2  0  0  0  0  0  0  0  0  0
  -12.8967  -15.3039   43.7413 C   0  0  0  0  0  0  0  0  0  0  0  0
  -12.0220  -15.9299   44.8024 C   0  0  1  0  0  0  0  0  0  0  0  0
  -12.1667  -15.5809   46.2472 C   0  0  0  0  0  0  0  0  0  0  0  0
  -11.1364  -14.6620   46.6306 N   0  0  0  0  0  0  0  0  0  0  0  0
  -11.0798  -13.1257   46.5357 C   0  0  0  0  0  0  0  0  0  0  0  0
  -11.8294  -12.3704   46.0606 O   0  0  0  0  0  0  0  0  0  0  0  0
   -9.8673  -12.6403   47.1942 C   0  0  0  0  0  0  0  0  0  0  0  0
   -9.1788  -13.1251   48.2919 C   0  0  0  0  0  0  0  0  0  0  0  0
   -8.0747  -12.3931   48.6913 N   0  0  0  0  0  0  0  0  0  0  0  0
   -7.9317  -11.3653   47.8857 C   0  0  0  0  0  0  0  0  0  0  0  0
   -9.0975  -11.2047   46.6420 S   0  0  0  0  0  0  0  0  0  0  0  0
  2  1  1  6
  2  3  1  0
  3  4  1  0
  4  5  1  1
  5  6  1  0
  6  7  1  0
  7  8  2  0
  7  9  1  0
  9 10  2  0
 10 11  1  0
 11 12  2  0
 12 13  1  0
  4  2  1  0
 13  9  1  0
M  END
>  <inchikey>  (1677) 
VXANBZKCBDWQTN-UHFFFAOYSA-N

>  <tags>  (1677) 
fragmenstein_placed,CpKRS_FrAncestor_bulkdock_iter2

>  <ref_pdb>  (1677) 
x0654b

>  <energy_score>  (1677) 
-14.89216

>  <distance_score>  (1677) 
0.581616

>  <HIPPO Pose ID>  (1677) 
61584

>  <ref_mols>  (1677) 
x0502b

>  <smiles>  (1677) 
CC1CC1CNC(=O)c1cncs1

>  <HIPPO Compound ID>  (1677) 
30851

>  <alias>  (1677) 
VXANBZKCBDWQTN-UHFFFAOYSA-N-P44

>  <subsites>  (1677) 


>  <placement_batch>  (1677) 
CpKRS_FrAncestor_bulkdock_iter2

>  <name>  (1677) 
VXANBZKCBDWQTN-UHFFFAOYSA-N-P44

$$$$
BMHLZYAJDURMOR-UHFFFAOYSA-N-P8
     RDKit          3D

 20 22  0  0  0  0  0  0  0  0999 V2000
    0.8931    8.0087   48.2363 C   0  0  0  0  0  0  0  0  0  0  0  0
    0.9669    7.6494   46.7762 C   0  0  1  0  0  0  0  0  0  0  0  0
    1.9557    6.4234   46.3988 C   0  0  0  0  0  0  0  0  0  0  0  0
    2.1290    5.2646   47.1711 C   0  0  0  0  0  0  0  0  0  0  0  0
    2.8382    4.1474   46.7092 C   0  0  0  0  0  0  0  0  0  0  0  0
    3.3845    4.1435   45.4310 C   0  0  0  0  0  0  0  0  0  0  0  0
    3.2335    5.2674   44.6342 C   0  0  0  0  0  0  0  0  0  0  0  0
    3.7021    5.2732   43.3269 N   0  0  0  0  0  0  0  0  0  0  0  0
    3.5850    6.3527   42.2205 C   0  0  0  0  0  0  0  0  0  0  0  0
    3.0113    7.3690   42.2133 O   0  0  0  0  0  0  0  0  0  0  0  0
    4.4543    5.9839   41.0598 C   0  0  0  0  0  0  0  0  0  0  0  0
    4.7937    4.7365   40.6933 C   0  0  0  0  0  0  0  0  0  0  0  0
    5.7117    4.4750   39.5412 C   0  0  0  0  0  0  0  0  0  0  0  0
    5.8652    5.6105   38.6948 O   0  0  0  0  0  0  0  0  0  0  0  0
    6.1518    6.7946   39.4250 C   0  0  0  0  0  0  0  0  0  0  0  0
    4.9548    7.1744   40.2784 C   0  0  0  0  0  0  0  0  0  0  0  0
    2.5950    6.3923   45.1449 C   0  0  0  0  0  0  0  0  0  0  0  0
   -0.4146    7.5649   46.0941 C   0  0  0  0  0  0  0  0  0  0  0  0
    0.2300    8.5128   45.0819 C   0  0  0  0  0  0  0  0  0  0  0  0
    1.2058    8.8986   46.0726 O   0  0  0  0  0  0  0  0  0  0  0  0
  2  1  1  1
  2  3  1  0
  3  4  2  0
  4  5  1  0
  5  6  2  0
  6  7  1  0
  7  8  1  0
  8  9  1  0
  9 10  2  0
  9 11  1  0
 11 12  2  0
 12 13  1  0
 13 14  1  0
 14 15  1  0
 15 16  1  0
  7 17  2  0
  2 18  1  0
 18 19  1  0
 19 20  1  0
 20  2  1  0
 17  3  1  0
 16 11  1  0
M  END
>  <inchikey>  (1678) 
BMHLZYAJDURMOR-UHFFFAOYSA-N

>  <tags>  (1678) 
fragmenstein_placed,CpKRS_FrAncestor_bulkdock_iter2

>  <ref_pdb>  (1678) 
x0654b

>  <energy_score>  (1678) 
-24.447166

>  <distance_score>  (1678) 
0.452605

>  <HIPPO Pose ID>  (1678) 
61590

>  <ref_mols>  (1678) 
x0419b

>  <smiles>  (1678) 
CC1(c2cccc(NC(=O)C3=CCOCC3)c2)CCO1

>  <HIPPO Compound ID>  (1678) 
453240

>  <alias>  (1678) 
BMHLZYAJDURMOR-UHFFFAOYSA-N-P8

>  <subsites>  (1678) 


>  <placement_batch>  (1678) 
CpKRS_FrAncestor_bulkdock_iter2

>  <name>  (1678) 
BMHLZYAJDURMOR-UHFFFAOYSA-N-P8

$$$$
BWOLVCDJJYDVKD-UHFFFAOYSA-N-P12
     RDKit          3D

 16 17  0  0  0  0  0  0  0  0999 V2000
    4.2316  -15.3033   26.5436 C   0  0  0  0  0  0  0  0  0  0  0  0
    3.1073  -14.4374   26.0603 C   0  0  0  0  0  0  0  0  0  0  0  0
    1.7965  -14.6655   26.5065 C   0  0  0  0  0  0  0  0  0  0  0  0
    0.7521  -13.8700   26.0359 C   0  0  0  0  0  0  0  0  0  0  0  0
   -1.0231  -14.0767   26.5813 Br  0  0  0  0  0  0  0  0  0  0  0  0
    1.0160  -12.8811   25.1178 C   0  0  0  0  0  0  0  0  0  0  0  0
    2.2470  -12.6159   24.6710 N   0  0  0  0  0  0  0  0  0  0  0  0
    3.2767  -13.3808   25.1640 C   0  0  0  0  0  0  0  0  0  0  0  0
    4.6190  -12.8667   24.6873 C   0  0  0  0  0  0  0  0  0  0  0  0
    5.6154  -13.4549   24.8165 O   0  0  0  0  0  0  0  0  0  0  0  0
    4.3485  -11.4862   24.0576 N   0  0  0  0  0  0  0  0  0  0  0  0
    5.2500  -10.5106   23.5464 C   0  0  0  0  0  0  0  0  0  0  0  0
    5.0580  -10.3149   22.0449 C   0  0  0  0  0  0  0  0  0  0  0  0
    5.1815   -8.8147   21.8025 C   0  0  0  0  0  0  0  0  0  0  0  0
    5.6476   -8.2203   23.1215 C   0  0  0  0  0  0  0  0  0  0  0  0
    5.0214   -9.1327   24.1556 C   0  0  0  0  0  0  0  0  0  0  0  0
  1  2  1  0
  2  3  2  0
  3  4  1  0
  4  5  1  0
  4  6  2  0
  6  7  1  0
  7  8  2  0
  8  9  1  0
  9 10  2  0
  9 11  1  0
 11 12  1  0
 12 13  1  0
 13 14  1  0
 14 15  1  0
 15 16  1  0
  8  2  1  0
 16 12  1  0
M  END
>  <inchikey>  (1679) 
BWOLVCDJJYDVKD-UHFFFAOYSA-N

>  <tags>  (1679) 
fragmenstein_placed,CpKRS_FrAncestor_bulkdock_iter2

>  <ref_pdb>  (1679) 
x0654b

>  <energy_score>  (1679) 
-16.31562

>  <distance_score>  (1679) 
0.620599

>  <HIPPO Pose ID>  (1679) 
61620

>  <ref_mols>  (1679) 
x0421b

>  <smiles>  (1679) 
Cc1cc(Br)cnc1C(=O)NC1CCCC1

>  <HIPPO Compound ID>  (1679) 
453246

>  <alias>  (1679) 
BWOLVCDJJYDVKD-UHFFFAOYSA-N-P12

>  <subsites>  (1679) 


>  <placement_batch>  (1679) 
CpKRS_FrAncestor_bulkdock_iter2

>  <name>  (1679) 
BWOLVCDJJYDVKD-UHFFFAOYSA-N-P12

$$$$
ZVFXNTRIOJSGIH-UHFFFAOYSA-N-P8
     RDKit          3D

 19 21  0  0  0  0  0  0  0  0999 V2000
    3.8984    3.3858   45.1841 C   0  0  0  0  0  0  0  0  0  0  0  0
    3.1445    4.6568   45.4112 C   0  0  0  0  0  0  0  0  0  0  0  0
    2.6039    4.8814   46.6886 C   0  0  0  0  0  0  0  0  0  0  0  0
    1.9079    6.0501   46.9076 C   0  0  0  0  0  0  0  0  0  0  0  0
    1.6961    6.9731   45.9157 C   0  0  0  0  0  0  0  0  0  0  0  0
    2.2293    6.7917   44.6668 C   0  0  0  0  0  0  0  0  0  0  0  0
    2.9684    5.6390   44.4076 C   0  0  0  0  0  0  0  0  0  0  0  0
    3.5443    5.5256   43.1486 N   0  0  0  0  0  0  0  0  0  0  0  0
    3.3736    6.4024   41.8808 C   0  0  0  0  0  0  0  0  0  0  0  0
    2.6653    7.3076   41.6768 O   0  0  0  0  0  0  0  0  0  0  0  0
    4.3800    6.0028   40.8626 C   0  0  0  0  0  0  0  0  0  0  0  0
    4.7842    4.7455   40.6229 C   0  0  0  0  0  0  0  0  0  0  0  0
    5.7948    4.4403   39.5645 C   0  0  0  0  0  0  0  0  0  0  0  0
    5.9986    5.5335   38.6716 O   0  0  0  0  0  0  0  0  0  0  0  0
    6.1955    6.7635   39.3534 C   0  0  0  0  0  0  0  0  0  0  0  0
    4.9161    7.1605   40.0633 C   0  0  0  0  0  0  0  0  0  0  0  0
    0.8272    8.0641   46.3934 C   0  0  0  0  0  0  0  0  0  0  0  0
    0.9053    7.7817   47.8828 C   0  0  0  0  0  0  0  0  0  0  0  0
    1.3520    6.4227   48.0913 O   0  0  0  0  0  0  0  0  0  0  0  0
  1  2  1  0
  2  3  2  0
  3  4  1  0
  4  5  2  0
  5  6  1  0
  6  7  2  0
  7  8  1  0
  8  9  1  0
  9 10  2  0
  9 11  1  0
 11 12  2  0
 12 13  1  0
 13 14  1  0
 14 15  1  0
 15 16  1  0
  5 17  1  0
 17 18  1  0
 18 19  1  0
  7  2  1  0
 16 11  1  0
 19  4  1  0
M  END
>  <inchikey>  (1680) 
ZVFXNTRIOJSGIH-UHFFFAOYSA-N

>  <tags>  (1680) 
fragmenstein_placed,CpKRS_FrAncestor_bulkdock_iter2

>  <ref_pdb>  (1680) 
x0654b

>  <energy_score>  (1680) 
-34.005831

>  <distance_score>  (1680) 
0.788452

>  <HIPPO Pose ID>  (1680) 
61626

>  <ref_mols>  (1680) 
x0419b

>  <smiles>  (1680) 
Cc1cc2c(cc1NC(=O)C1=CCOCC1)CCO2

>  <HIPPO Compound ID>  (1680) 
53864

>  <alias>  (1680) 
ZVFXNTRIOJSGIH-UHFFFAOYSA-N-P8

>  <subsites>  (1680) 


>  <placement_batch>  (1680) 
CpKRS_FrAncestor_bulkdock_iter2

>  <name>  (1680) 
ZVFXNTRIOJSGIH-UHFFFAOYSA-N-P8

$$$$
DOOWWMLGFUQPPD-UHFFFAOYSA-N-P38
     RDKit          3D

 18 20  0  0  0  0  0  0  0  0999 V2000
   -0.6690  -11.7549   23.9880 C   0  0  0  0  0  0  0  0  0  0  0  0
    0.2886  -12.1129   25.1096 C   0  0  1  0  0  0  0  0  0  0  0  0
   -0.1115  -13.3936   25.8417 C   0  0  0  0  0  0  0  0  0  0  0  0
    1.2397  -13.8366   26.2527 C   0  0  0  0  0  0  0  0  0  0  0  0
    1.6081  -14.7581   27.2147 C   0  0  0  0  0  0  0  0  0  0  0  0
    2.9419  -15.1487   27.2781 C   0  0  0  0  0  0  0  0  0  0  0  0
    3.8812  -14.6041   26.3909 C   0  0  0  0  0  0  0  0  0  0  0  0
    3.5193  -13.6275   25.4441 C   0  0  0  0  0  0  0  0  0  0  0  0
    4.6052  -13.0656   24.5664 C   0  0  0  0  0  0  0  0  0  0  0  0
    5.6942  -13.4141   24.7809 O   0  0  0  0  0  0  0  0  0  0  0  0
    4.0661  -12.0680   23.5344 N   0  0  0  0  0  0  0  0  0  0  0  0
    4.7370  -11.3593   22.4868 C   0  0  0  0  0  0  0  0  0  0  0  0
    4.6457   -9.8536   22.6367 C   0  0  0  0  0  0  0  0  0  0  0  0
    5.2955   -9.1131   21.5002 C   0  0  0  0  0  0  0  0  0  0  0  0
    3.4353   -9.2227   23.2962 C   0  0  0  0  0  0  0  0  0  0  0  0
    4.7626   -9.2114   24.0044 C   0  0  0  0  0  0  0  0  0  0  0  0
    2.1832  -13.2520   25.4120 C   0  0  0  0  0  0  0  0  0  0  0  0
    1.6149  -12.3265   24.5587 O   0  0  0  0  0  0  0  0  0  0  0  0
  2  1  1  6
  2  3  1  0
  3  4  1  0
  4  5  2  0
  5  6  1  0
  6  7  2  0
  7  8  1  0
  8  9  1  0
  9 10  2  0
  9 11  1  0
 11 12  1  0
 12 13  1  0
 13 14  1  0
 13 15  1  0
 15 16  1  0
  8 17  2  0
 17 18  1  0
 18  2  1  0
 17  4  1  0
 16 13  1  0
M  END
>  <inchikey>  (1681) 
DOOWWMLGFUQPPD-UHFFFAOYSA-N

>  <tags>  (1681) 
fragmenstein_placed,CpKRS_FrAncestor_bulkdock_iter2

>  <ref_pdb>  (1681) 
x0654b

>  <energy_score>  (1681) 
-7.215237

>  <distance_score>  (1681) 
0.441475

>  <HIPPO Pose ID>  (1681) 
61637

>  <ref_mols>  (1681) 
x0555a

>  <smiles>  (1681) 
CC1Cc2cccc(C(=O)NCC3(C)CC3)c2O1

>  <HIPPO Compound ID>  (1681) 
453250

>  <alias>  (1681) 
DOOWWMLGFUQPPD-UHFFFAOYSA-N-P38

>  <subsites>  (1681) 


>  <placement_batch>  (1681) 
CpKRS_FrAncestor_bulkdock_iter2

>  <name>  (1681) 
DOOWWMLGFUQPPD-UHFFFAOYSA-N-P38

$$$$
UWIJRYZLDRWKNS-UHFFFAOYSA-N-P38
     RDKit          3D

 19 21  0  0  0  0  0  0  0  0999 V2000
   -0.1004  -10.7402   24.7531 C   0  0  0  0  0  0  0  0  0  0  0  0
    0.1906  -12.1946   24.4218 C   0  0  2  0  0  0  0  0  0  0  0  0
   -0.2255  -13.1874   25.5125 C   0  0  0  0  0  0  0  0  0  0  0  0
    1.0980  -13.6179   26.0149 C   0  0  0  0  0  0  0  0  0  0  0  0
    1.3990  -14.4609   27.0700 C   0  0  0  0  0  0  0  0  0  0  0  0
    2.7195  -14.8735   27.2349 C   0  0  0  0  0  0  0  0  0  0  0  0
    3.7192  -14.4141   26.3642 C   0  0  0  0  0  0  0  0  0  0  0  0
    3.4263  -13.5085   25.3303 C   0  0  0  0  0  0  0  0  0  0  0  0
    4.5612  -13.0045   24.4739 C   0  0  0  0  0  0  0  0  0  0  0  0
    5.6388  -13.3393   24.7585 O   0  0  0  0  0  0  0  0  0  0  0  0
    4.0697  -12.0867   23.3444 N   0  0  0  0  0  0  0  0  0  0  0  0
    4.8057  -11.3113   22.3845 C   0  0  0  0  0  0  0  0  0  0  0  0
    4.8420   -9.8301   22.7929 C   0  0  0  0  0  0  0  0  0  0  0  0
    5.3614   -8.8539   21.3725 Cl  0  0  0  0  0  0  0  0  0  0  0  0
    3.6053   -9.2266   23.5422 C   0  0  0  0  0  0  0  0  0  0  0  0
    4.5977   -8.4291   24.4111 C   0  0  0  0  0  0  0  0  0  0  0  0
    5.6429   -9.5042   24.0816 C   0  0  0  0  0  0  0  0  0  0  0  0
    2.0957  -13.1351   25.1818 C   0  0  0  0  0  0  0  0  0  0  0  0
    1.6123  -12.3151   24.1896 O   0  0  0  0  0  0  0  0  0  0  0  0
  2  1  1  1
  2  3  1  0
  3  4  1  0
  4  5  2  0
  5  6  1  0
  6  7  2  0
  7  8  1  0
  8  9  1  0
  9 10  2  0
  9 11  1  0
 11 12  1  0
 12 13  1  0
 13 14  1  0
 13 15  1  0
 15 16  1  0
 16 17  1  0
  8 18  2  0
 18 19  1  0
 19  2  1  0
 18  4  1  0
 17 13  1  0
M  END
>  <inchikey>  (1682) 
UWIJRYZLDRWKNS-UHFFFAOYSA-N

>  <tags>  (1682) 
fragmenstein_placed,CpKRS_FrAncestor_bulkdock_iter2

>  <ref_pdb>  (1682) 
x0654b

>  <energy_score>  (1682) 
-34.201171

>  <distance_score>  (1682) 
0.549068

>  <HIPPO Pose ID>  (1682) 
61638

>  <ref_mols>  (1682) 
x0555a

>  <smiles>  (1682) 
CC1Cc2cccc(C(=O)NCC3(Cl)CCC3)c2O1

>  <HIPPO Compound ID>  (1682) 
40662

>  <alias>  (1682) 
UWIJRYZLDRWKNS-UHFFFAOYSA-N-P38

>  <subsites>  (1682) 


>  <placement_batch>  (1682) 
CpKRS_FrAncestor_bulkdock_iter2

>  <name>  (1682) 
UWIJRYZLDRWKNS-UHFFFAOYSA-N-P38

$$$$
BXFIBWMXHWWOFD-UHFFFAOYSA-N-P38
     RDKit          3D

 19 21  0  0  0  0  0  0  0  0999 V2000
    3.2723  -16.0473   28.2504 C   0  0  0  0  0  0  0  0  0  0  0  0
    2.8648  -15.0198   27.2381 C   0  0  0  0  0  0  0  0  0  0  0  0
    1.5289  -14.6248   27.1304 C   0  0  0  0  0  0  0  0  0  0  0  0
    1.1824  -13.7143   26.1495 C   0  0  0  0  0  0  0  0  0  0  0  0
    2.1434  -13.1438   25.3223 C   0  0  0  0  0  0  0  0  0  0  0  0
    3.4764  -13.5246   25.3823 C   0  0  0  0  0  0  0  0  0  0  0  0
    4.5802  -12.9722   24.5191 C   0  0  0  0  0  0  0  0  0  0  0  0
    5.6625  -13.3407   24.7340 O   0  0  0  0  0  0  0  0  0  0  0  0
    4.0630  -11.9451   23.5044 N   0  0  0  0  0  0  0  0  0  0  0  0
    4.7545  -11.2213   22.4730 C   0  0  0  0  0  0  0  0  0  0  0  0
    4.9425   -9.7496   22.8738 C   0  0  0  0  0  0  0  0  0  0  0  0
    5.3294   -8.8033   21.3934 Cl  0  0  0  0  0  0  0  0  0  0  0  0
    5.9273   -9.4680   24.0405 C   0  0  0  0  0  0  0  0  0  0  0  0
    4.9817   -8.3555   24.5224 C   0  0  0  0  0  0  0  0  0  0  0  0
    3.8525   -9.0918   23.7835 C   0  0  0  0  0  0  0  0  0  0  0  0
    3.8169  -14.4936   26.3444 C   0  0  0  0  0  0  0  0  0  0  0  0
    1.5973  -12.2290   24.4447 O   0  0  0  0  0  0  0  0  0  0  0  0
    0.2511  -12.0274   24.9387 C   0  0  0  0  0  0  0  0  0  0  0  0
   -0.1592  -13.2801   25.7003 C   0  0  0  0  0  0  0  0  0  0  0  0
  1  2  1  0
  2  3  2  0
  3  4  1  0
  4  5  2  0
  5  6  1  0
  6  7  1  0
  7  8  2  0
  7  9  1  0
  9 10  1  0
 10 11  1  0
 11 12  1  0
 11 13  1  0
 13 14  1  0
 14 15  1  0
  6 16  2  0
  5 17  1  0
 17 18  1  0
 18 19  1  0
 16  2  1  0
 19  4  1  0
 15 11  1  0
M  END
>  <inchikey>  (1683) 
BXFIBWMXHWWOFD-UHFFFAOYSA-N

>  <tags>  (1683) 
fragmenstein_placed,CpKRS_FrAncestor_bulkdock_iter2

>  <ref_pdb>  (1683) 
x0654b

>  <energy_score>  (1683) 
-4.128842

>  <distance_score>  (1683) 
0.503128

>  <HIPPO Pose ID>  (1683) 
61641

>  <ref_mols>  (1683) 
x0555a

>  <smiles>  (1683) 
Cc1cc2c(c(C(=O)NCC3(Cl)CCC3)c1)OCC2

>  <HIPPO Compound ID>  (1683) 
40664

>  <alias>  (1683) 
BXFIBWMXHWWOFD-UHFFFAOYSA-N-P38

>  <subsites>  (1683) 


>  <placement_batch>  (1683) 
CpKRS_FrAncestor_bulkdock_iter2

>  <name>  (1683) 
BXFIBWMXHWWOFD-UHFFFAOYSA-N-P38

$$$$
QDTKBNOGUIJICS-UHFFFAOYSA-N-P64
     RDKit          3D

 19 21  0  0  0  0  0  0  0  0999 V2000
   -0.6902  -13.6023   25.4568 C   0  0  0  0  0  0  0  0  0  0  0  0
    0.6875  -14.0517   25.8525 C   0  0  0  0  0  0  0  0  0  0  0  0
    0.8599  -14.9321   26.9211 C   0  0  0  0  0  0  0  0  0  0  0  0
    2.1331  -15.3524   27.2292 C   0  0  0  0  0  0  0  0  0  0  0  0
    3.2484  -14.9347   26.4773 C   0  0  0  0  0  0  0  0  0  0  0  0
    3.1025  -14.1056   25.3689 C   0  0  0  0  0  0  0  0  0  0  0  0
    4.2550  -13.8433   24.4332 C   0  0  0  0  0  0  0  0  0  0  0  0
    5.0547  -14.6850   24.3250 O   0  0  0  0  0  0  0  0  0  0  0  0
    4.1101  -12.5008   23.6882 N   0  0  0  0  0  0  0  0  0  0  0  0
    4.8604  -11.9573   22.5921 C   0  0  0  0  0  0  0  0  0  0  0  0
    5.0358  -10.4926   22.6921 C   0  0  0  0  0  0  0  0  0  0  0  0
    5.1402   -9.4969   21.7482 C   0  0  0  0  0  0  0  0  0  0  0  0
    5.3371   -8.3283   22.4972 C   0  0  0  0  0  0  0  0  0  0  0  0
    5.3349   -8.5689   23.8076 N   0  0  0  0  0  0  0  0  0  0  0  0
    5.1723   -9.9413   23.9307 O   0  0  0  0  0  0  0  0  0  0  0  0
    1.7990  -13.6738   25.0663 C   0  0  0  0  0  0  0  0  0  0  0  0
    4.4820  -15.5598   27.0529 C   0  0  0  0  0  0  0  0  0  0  0  0
    3.9732  -15.8681   28.4689 C   0  0  0  0  0  0  0  0  0  0  0  0
    2.5262  -16.2928   28.3219 C   0  0  0  0  0  0  0  0  0  0  0  0
  1  2  1  0
  2  3  2  0
  3  4  1  0
  4  5  2  0
  5  6  1  0
  6  7  1  0
  7  8  2  0
  7  9  1  0
  9 10  1  0
 10 11  1  0
 11 12  2  0
 12 13  1  0
 13 14  2  0
 14 15  1  0
  6 16  2  0
  5 17  1  0
 17 18  1  0
 18 19  1  0
 16  2  1  0
 19  4  1  0
 15 11  1  0
M  END
>  <inchikey>  (1684) 
QDTKBNOGUIJICS-UHFFFAOYSA-N

>  <tags>  (1684) 
fragmenstein_placed,CpKRS_FrAncestor_bulkdock_iter2

>  <ref_pdb>  (1684) 
x0654b

>  <energy_score>  (1684) 
-6.814479

>  <distance_score>  (1684) 
0.976174

>  <HIPPO Pose ID>  (1684) 
61645

>  <ref_mols>  (1684) 
x0787b

>  <smiles>  (1684) 
Cc1cc2c(c(C(=O)NCc3ccno3)c1)CCC2

>  <HIPPO Compound ID>  (1684) 
41269

>  <alias>  (1684) 
QDTKBNOGUIJICS-UHFFFAOYSA-N-P64

>  <subsites>  (1684) 


>  <placement_batch>  (1684) 
CpKRS_FrAncestor_bulkdock_iter2

>  <name>  (1684) 
QDTKBNOGUIJICS-UHFFFAOYSA-N-P64

$$$$
BRKSDXPOOPYTBM-UHFFFAOYSA-N-P64
     RDKit          3D

 19 21  0  0  0  0  0  0  0  0999 V2000
   -0.6675  -13.5631   25.4242 C   0  0  0  0  0  0  0  0  0  0  0  0
    0.7090  -14.0162   25.8205 C   0  0  0  0  0  0  0  0  0  0  0  0
    0.8764  -14.8996   26.8869 C   0  0  0  0  0  0  0  0  0  0  0  0
    2.1477  -15.3249   27.1947 C   0  0  0  0  0  0  0  0  0  0  0  0
    3.2663  -14.9053   26.4469 C   0  0  0  0  0  0  0  0  0  0  0  0
    3.1270  -14.0699   25.3398 C   0  0  0  0  0  0  0  0  0  0  0  0
    4.2920  -13.7981   24.4158 C   0  0  0  0  0  0  0  0  0  0  0  0
    5.1174  -14.6198   24.3513 O   0  0  0  0  0  0  0  0  0  0  0  0
    4.1252  -12.4830   23.6235 N   0  0  0  0  0  0  0  0  0  0  0  0
    4.8836  -11.9534   22.5258 C   0  0  0  0  0  0  0  0  0  0  0  0
    5.0518  -10.4757   22.5791 C   0  0  0  0  0  0  0  0  0  0  0  0
    5.0850   -9.5720   21.5325 C   0  0  0  0  0  0  0  0  0  0  0  0
    5.3337   -8.2579   22.0069 C   0  0  0  0  0  0  0  0  0  0  0  0
    5.4523   -8.1083   23.3186 N   0  0  0  0  0  0  0  0  0  0  0  0
    5.3669   -9.6082   24.0158 S   0  0  0  0  0  0  0  0  0  0  0  0
    1.8232  -13.6378   25.0369 C   0  0  0  0  0  0  0  0  0  0  0  0
    4.4956  -15.5386   27.0254 C   0  0  0  0  0  0  0  0  0  0  0  0
    3.9814  -15.8559   28.4373 C   0  0  0  0  0  0  0  0  0  0  0  0
    2.5336  -16.2740   28.2833 C   0  0  0  0  0  0  0  0  0  0  0  0
  1  2  1  0
  2  3  2  0
  3  4  1  0
  4  5  2  0
  5  6  1  0
  6  7  1  0
  7  8  2  0
  7  9  1  0
  9 10  1  0
 10 11  1  0
 11 12  2  0
 12 13  1  0
 13 14  2  0
 14 15  1  0
  6 16  2  0
  5 17  1  0
 17 18  1  0
 18 19  1  0
 16  2  1  0
 19  4  1  0
 15 11  1  0
M  END
>  <inchikey>  (1685) 
BRKSDXPOOPYTBM-UHFFFAOYSA-N

>  <tags>  (1685) 
fragmenstein_placed,CpKRS_FrAncestor_bulkdock_iter2

>  <ref_pdb>  (1685) 
x0654b

>  <energy_score>  (1685) 
-11.42984

>  <distance_score>  (1685) 
0.974136

>  <HIPPO Pose ID>  (1685) 
61647

>  <ref_mols>  (1685) 
x0787b

>  <smiles>  (1685) 
Cc1cc2c(c(C(=O)NCc3ccns3)c1)CCC2

>  <HIPPO Compound ID>  (1685) 
453253

>  <alias>  (1685) 
BRKSDXPOOPYTBM-UHFFFAOYSA-N-P64

>  <subsites>  (1685) 


>  <placement_batch>  (1685) 
CpKRS_FrAncestor_bulkdock_iter2

>  <name>  (1685) 
BRKSDXPOOPYTBM-UHFFFAOYSA-N-P64

$$$$
QNCAAZLQLJYQAG-UHFFFAOYSA-N-P64
     RDKit          3D

 19 21  0  0  0  0  0  0  0  0999 V2000
   -0.4534  -12.7945   25.8021 C   0  0  0  0  0  0  0  0  0  0  0  0
    0.8902  -13.3949   26.1024 C   0  0  0  0  0  0  0  0  0  0  0  0
    1.1119  -14.1076   27.2795 C   0  0  0  0  0  0  0  0  0  0  0  0
    2.3273  -14.7293   27.4650 C   0  0  0  0  0  0  0  0  0  0  0  0
    3.3516  -14.6350   26.5094 C   0  0  0  0  0  0  0  0  0  0  0  0
    3.1913  -13.8531   25.3671 C   0  0  0  0  0  0  0  0  0  0  0  0
    4.2962  -13.6844   24.3546 C   0  0  0  0  0  0  0  0  0  0  0  0
    5.0348  -14.5713   24.1920 O   0  0  0  0  0  0  0  0  0  0  0  0
    4.1981  -12.3202   23.6386 N   0  0  0  0  0  0  0  0  0  0  0  0
    4.9259  -11.8026   22.5125 C   0  0  0  0  0  0  0  0  0  0  0  0
    5.1275  -10.3419   22.6365 C   0  0  0  0  0  0  0  0  0  0  0  0
    5.0230   -9.3699   21.6160 C   0  0  0  0  0  0  0  0  0  0  0  0
    5.2342   -8.1287   22.0582 N   0  0  0  0  0  0  0  0  0  0  0  0
    5.5687   -8.2774   23.3937 O   0  0  0  0  0  0  0  0  0  0  0  0
    5.5128   -9.5913   23.7224 C   0  0  0  0  0  0  0  0  0  0  0  0
    1.9262  -13.2786   25.1543 C   0  0  0  0  0  0  0  0  0  0  0  0
    4.5295  -15.4403   26.9488 C   0  0  0  0  0  0  0  0  0  0  0  0
    3.9440  -16.2360   28.1250 C   0  0  0  0  0  0  0  0  0  0  0  0
    2.7322  -15.5058   28.6690 C   0  0  0  0  0  0  0  0  0  0  0  0
  1  2  1  0
  2  3  2  0
  3  4  1  0
  4  5  2  0
  5  6  1  0
  6  7  1  0
  7  8  2  0
  7  9  1  0
  9 10  1  0
 10 11  1  0
 11 12  1  0
 12 13  2  0
 13 14  1  0
 14 15  1  0
  6 16  2  0
  5 17  1  0
 17 18  1  0
 18 19  1  0
 16  2  1  0
 19  4  1  0
 15 11  2  0
M  END
>  <inchikey>  (1686) 
QNCAAZLQLJYQAG-UHFFFAOYSA-N

>  <tags>  (1686) 
fragmenstein_placed,CpKRS_FrAncestor_bulkdock_iter2

>  <ref_pdb>  (1686) 
x0654b

>  <energy_score>  (1686) 
-3.432756

>  <distance_score>  (1686) 
0.935552

>  <HIPPO Pose ID>  (1686) 
61649

>  <ref_mols>  (1686) 
x0787b

>  <smiles>  (1686) 
Cc1cc2c(c(C(=O)NCc3cnoc3)c1)CCC2

>  <HIPPO Compound ID>  (1686) 
39666

>  <alias>  (1686) 
QNCAAZLQLJYQAG-UHFFFAOYSA-N-P64

>  <subsites>  (1686) 


>  <placement_batch>  (1686) 
CpKRS_FrAncestor_bulkdock_iter2

>  <name>  (1686) 
QNCAAZLQLJYQAG-UHFFFAOYSA-N-P64

$$$$
TYEFZJWNTALQHV-UHFFFAOYSA-N-P46
     RDKit          3D

 15 16  0  0  0  0  0  0  0  0999 V2000
    3.2223   -9.0521   24.0166 C   0  0  0  0  0  0  0  0  0  0  0  0
    4.7042   -9.3208   23.9089 C   0  0  2  0  0  0  0  0  0  0  0  0
    5.5002   -8.4074   22.9490 C   0  0  0  0  0  0  0  0  0  0  0  0
    5.4420   -9.5171   21.9005 C   0  0  0  0  0  0  0  0  0  0  0  0
    5.1699  -10.5287   23.0404 C   0  0  2  0  0  0  0  0  0  0  0  0
    4.2752  -11.6651   22.5936 C   0  0  0  0  0  0  0  0  0  0  0  0
    3.7299  -12.3158   23.7469 N   0  0  0  0  0  0  0  0  0  0  0  0
    4.4178  -13.1543   24.8424 C   0  0  0  0  0  0  0  0  0  0  0  0
    5.5464  -13.3831   25.0210 O   0  0  0  0  0  0  0  0  0  0  0  0
    3.4316  -13.6807   25.8481 C   0  0  0  0  0  0  0  0  0  0  0  0
    2.2123  -13.0645   26.1563 C   0  0  0  0  0  0  0  0  0  0  0  0
    1.4303  -13.5615   27.1976 C   0  0  0  0  0  0  0  0  0  0  0  0
    1.9003  -14.6466   27.9172 C   0  0  0  0  0  0  0  0  0  0  0  0
    3.0528  -15.2838   27.6425 N   0  0  0  0  0  0  0  0  0  0  0  0
    3.7909  -14.7885   26.6117 C   0  0  0  0  0  0  0  0  0  0  0  0
  2  1  1  6
  2  3  1  0
  3  4  1  0
  4  5  1  0
  5  6  1  6
  6  7  1  0
  7  8  1  0
  8  9  2  0
  8 10  1  0
 10 11  2  0
 11 12  1  0
 12 13  2  0
 13 14  1  0
 14 15  2  0
  5  2  1  0
 15 10  1  0
M  END
>  <inchikey>  (1687) 
TYEFZJWNTALQHV-UHFFFAOYSA-N

>  <tags>  (1687) 
fragmenstein_placed,CpKRS_FrAncestor_bulkdock_iter2

>  <ref_pdb>  (1687) 
x0654b

>  <energy_score>  (1687) 
-14.949176

>  <distance_score>  (1687) 
0.67111

>  <HIPPO Pose ID>  (1687) 
61668

>  <ref_mols>  (1687) 
x0502c

>  <smiles>  (1687) 
CC1CCC1CNC(=O)c1cccnc1

>  <HIPPO Compound ID>  (1687) 
30829

>  <alias>  (1687) 
TYEFZJWNTALQHV-UHFFFAOYSA-N-P46

>  <subsites>  (1687) 


>  <placement_batch>  (1687) 
CpKRS_FrAncestor_bulkdock_iter2

>  <name>  (1687) 
TYEFZJWNTALQHV-UHFFFAOYSA-N-P46

$$$$
CCBPKFCUGGAFAI-UHFFFAOYSA-N-P44
     RDKit          3D

 14 15  0  0  0  0  0  0  0  0999 V2000
  -14.1344  -15.8436   42.8517 C   0  0  0  0  0  0  0  0  0  0  0  0
  -13.4600  -16.5382   44.0212 C   0  0  1  0  0  0  0  0  0  0  0  0
  -12.4395  -17.6342   43.6556 C   0  0  0  0  0  0  0  0  0  0  0  0
  -11.3232  -16.5936   43.8226 C   0  0  0  0  0  0  0  0  0  0  0  0
  -12.2935  -15.7256   44.6616 C   0  0  2  0  0  0  0  0  0  0  0  0
  -12.2103  -15.8526   46.1774 C   0  0  0  0  0  0  0  0  0  0  0  0
  -11.2242  -14.9185   46.6531 N   0  0  0  0  0  0  0  0  0  0  0  0
  -11.2523  -13.3757   46.7161 C   0  0  0  0  0  0  0  0  0  0  0  0
  -12.1083  -12.6248   46.4639 O   0  0  0  0  0  0  0  0  0  0  0  0
   -9.9982  -12.8807   47.2772 C   0  0  0  0  0  0  0  0  0  0  0  0
   -9.1473  -13.3954   48.2384 C   0  0  0  0  0  0  0  0  0  0  0  0
   -8.0770  -12.4884   48.4904 C   0  0  0  0  0  0  0  0  0  0  0  0
   -8.0682  -11.3541   47.7973 N   0  0  0  0  0  0  0  0  0  0  0  0
   -9.3873  -11.3549   46.7881 S   0  0  0  0  0  0  0  0  0  0  0  0
  2  1  1  6
  2  3  1  0
  3  4  1  0
  4  5  1  0
  5  6  1  1
  6  7  1  0
  7  8  1  0
  8  9  2  0
  8 10  1  0
 10 11  2  0
 11 12  1  0
 12 13  2  0
 13 14  1  0
  5  2  1  0
 14 10  1  0
M  END
>  <inchikey>  (1688) 
CCBPKFCUGGAFAI-UHFFFAOYSA-N

>  <tags>  (1688) 
fragmenstein_placed,CpKRS_FrAncestor_bulkdock_iter2

>  <ref_pdb>  (1688) 
x0654b

>  <energy_score>  (1688) 
-30.332595

>  <distance_score>  (1688) 
0.518886

>  <HIPPO Pose ID>  (1688) 
61670

>  <ref_mols>  (1688) 
x0502b

>  <smiles>  (1688) 
CC1CCC1CNC(=O)c1ccns1

>  <HIPPO Compound ID>  (1688) 
30830

>  <alias>  (1688) 
CCBPKFCUGGAFAI-UHFFFAOYSA-N-P44

>  <subsites>  (1688) 


>  <placement_batch>  (1688) 
CpKRS_FrAncestor_bulkdock_iter2

>  <name>  (1688) 
CCBPKFCUGGAFAI-UHFFFAOYSA-N-P44

$$$$
GWTRSVSADZFZOR-UHFFFAOYSA-N-P45
     RDKit          3D

 14 15  0  0  0  0  0  0  0  0999 V2000
    3.9613   -9.0324   24.8055 C   0  0  0  0  0  0  0  0  0  0  0  0
    4.9230   -9.4665   23.7318 C   0  0  2  0  0  0  0  0  0  0  0  0
    5.1665   -8.4342   22.6076 C   0  0  0  0  0  0  0  0  0  0  0  0
    5.0920   -9.6007   21.6138 C   0  0  0  0  0  0  0  0  0  0  0  0
    4.2620  -10.3829   22.6633 C   0  0  1  0  0  0  0  0  0  0  0  0
    4.5394  -11.8709   22.7073 C   0  0  0  0  0  0  0  0  0  0  0  0
    3.9058  -12.4398   23.8634 N   0  0  0  0  0  0  0  0  0  0  0  0
    4.4684  -13.3664   24.9593 C   0  0  0  0  0  0  0  0  0  0  0  0
    5.5536  -13.7514   25.1386 O   0  0  0  0  0  0  0  0  0  0  0  0
    3.3972  -13.7502   25.8631 C   0  0  0  0  0  0  0  0  0  0  0  0
    3.3299  -14.7063   26.8556 C   0  0  0  0  0  0  0  0  0  0  0  0
    2.1173  -14.6455   27.5018 N   0  0  0  0  0  0  0  0  0  0  0  0
    1.5012  -13.6755   26.8725 C   0  0  0  0  0  0  0  0  0  0  0  0
    2.1867  -13.0931   25.8526 O   0  0  0  0  0  0  0  0  0  0  0  0
  2  1  1  1
  2  3  1  0
  3  4  1  0
  4  5  1  0
  5  6  1  1
  6  7  1  0
  7  8  1  0
  8  9  2  0
  8 10  1  0
 10 11  2  0
 11 12  1  0
 12 13  2  0
 13 14  1  0
  5  2  1  0
 14 10  1  0
M  END
>  <inchikey>  (1689) 
GWTRSVSADZFZOR-UHFFFAOYSA-N

>  <tags>  (1689) 
fragmenstein_placed,CpKRS_FrAncestor_bulkdock_iter2

>  <ref_pdb>  (1689) 
x0654b

>  <energy_score>  (1689) 
-25.649089

>  <distance_score>  (1689) 
0.572129

>  <HIPPO Pose ID>  (1689) 
61672

>  <ref_mols>  (1689) 
x0502a

>  <smiles>  (1689) 
CC1CCC1CNC(=O)c1cnco1

>  <HIPPO Compound ID>  (1689) 
30831

>  <alias>  (1689) 
GWTRSVSADZFZOR-UHFFFAOYSA-N-P45

>  <subsites>  (1689) 


>  <placement_batch>  (1689) 
CpKRS_FrAncestor_bulkdock_iter2

>  <name>  (1689) 
GWTRSVSADZFZOR-UHFFFAOYSA-N-P45

$$$$
DBWNSIVRZMDXPD-UHFFFAOYSA-N-P46
     RDKit          3D

 14 15  0  0  0  0  0  0  0  0999 V2000
    4.7909   -8.8175   21.2257 C   0  0  0  0  0  0  0  0  0  0  0  0
    4.4393   -9.3485   22.5828 C   0  0  2  0  0  0  0  0  0  0  0  0
    5.1219   -8.6099   23.7529 C   0  0  0  0  0  0  0  0  0  0  0  0
    5.3948   -9.9895   24.3567 C   0  0  0  0  0  0  0  0  0  0  0  0
    5.2781  -10.5925   22.9402 C   0  0  1  0  0  0  0  0  0  0  0  0
    4.6847  -11.9525   22.6343 C   0  0  0  0  0  0  0  0  0  0  0  0
    3.9836  -12.4526   23.7749 N   0  0  0  0  0  0  0  0  0  0  0  0
    4.4644  -13.3526   24.9304 C   0  0  0  0  0  0  0  0  0  0  0  0
    5.5268  -13.7645   25.1746 O   0  0  0  0  0  0  0  0  0  0  0  0
    3.3453  -13.6732   25.8184 C   0  0  0  0  0  0  0  0  0  0  0  0
    3.3130  -14.6342   26.8144 C   0  0  0  0  0  0  0  0  0  0  0  0
    2.1625  -14.6761   27.5865 N   0  0  0  0  0  0  0  0  0  0  0  0
    1.3427  -13.7457   27.1606 C   0  0  0  0  0  0  0  0  0  0  0  0
    1.8378  -12.8498   25.7921 S   0  0  0  0  0  0  0  0  0  0  0  0
  2  1  1  6
  2  3  1  0
  3  4  1  0
  4  5  1  0
  5  6  1  1
  6  7  1  0
  7  8  1  0
  8  9  2  0
  8 10  1  0
 10 11  2  0
 11 12  1  0
 12 13  2  0
 13 14  1  0
  5  2  1  0
 14 10  1  0
M  END
>  <inchikey>  (1690) 
DBWNSIVRZMDXPD-UHFFFAOYSA-N

>  <tags>  (1690) 
fragmenstein_placed,CpKRS_FrAncestor_bulkdock_iter2

>  <ref_pdb>  (1690) 
x0654b

>  <energy_score>  (1690) 
-54.337623

>  <distance_score>  (1690) 
0.627712

>  <HIPPO Pose ID>  (1690) 
61677

>  <ref_mols>  (1690) 
x0502c

>  <smiles>  (1690) 
CC1CCC1CNC(=O)c1cncs1

>  <HIPPO Compound ID>  (1690) 
30832

>  <alias>  (1690) 
DBWNSIVRZMDXPD-UHFFFAOYSA-N-P46

>  <subsites>  (1690) 


>  <placement_batch>  (1690) 
CpKRS_FrAncestor_bulkdock_iter2

>  <name>  (1690) 
DBWNSIVRZMDXPD-UHFFFAOYSA-N-P46

$$$$
FGVSQWUDEYIUMW-UHFFFAOYSA-N-P46
     RDKit          3D

 14 15  0  0  0  0  0  0  0  0999 V2000
    3.3871   -9.0007   24.3341 C   0  0  0  0  0  0  0  0  0  0  0  0
    4.7263   -9.0683   23.6440 C   0  0  2  0  0  0  0  0  0  0  0  0
    4.7821   -8.4021   22.2558 C   0  0  0  0  0  0  0  0  0  0  0  0
    5.6107   -9.5823   21.7587 C   0  0  0  0  0  0  0  0  0  0  0  0
    5.1400  -10.4137   22.9743 C   0  0  2  0  0  0  0  0  0  0  0  0
    4.1437  -11.4798   22.5571 C   0  0  0  0  0  0  0  0  0  0  0  0
    3.5951  -12.1022   23.7250 N   0  0  0  0  0  0  0  0  0  0  0  0
    4.2502  -13.0313   24.7656 C   0  0  0  0  0  0  0  0  0  0  0  0
    5.3573  -13.3747   24.8796 O   0  0  0  0  0  0  0  0  0  0  0  0
    3.2459  -13.4995   25.7357 C   0  0  0  0  0  0  0  0  0  0  0  0
    3.3945  -14.6708   26.5575 C   0  0  0  0  0  0  0  0  0  0  0  0
    2.4244  -14.9464   27.4294 N   0  0  0  0  0  0  0  0  0  0  0  0
    1.2661  -13.7781   27.2889 S   0  0  0  0  0  0  0  0  0  0  0  0
    2.0457  -12.8880   26.0624 C   0  0  0  0  0  0  0  0  0  0  0  0
  2  1  1  6
  2  3  1  0
  3  4  1  0
  4  5  1  0
  5  6  1  6
  6  7  1  0
  7  8  1  0
  8  9  2  0
  8 10  1  0
 10 11  1  0
 11 12  2  0
 12 13  1  0
 13 14  1  0
  5  2  1  0
 14 10  2  0
M  END
>  <inchikey>  (1691) 
FGVSQWUDEYIUMW-UHFFFAOYSA-N

>  <tags>  (1691) 
fragmenstein_placed,CpKRS_FrAncestor_bulkdock_iter2

>  <ref_pdb>  (1691) 
x0654b

>  <energy_score>  (1691) 
-12.754906

>  <distance_score>  (1691) 
0.569448

>  <HIPPO Pose ID>  (1691) 
61680

>  <ref_mols>  (1691) 
x0502c

>  <smiles>  (1691) 
CC1CCC1CNC(=O)c1cnsc1

>  <HIPPO Compound ID>  (1691) 
30833

>  <alias>  (1691) 
FGVSQWUDEYIUMW-UHFFFAOYSA-N-P46

>  <subsites>  (1691) 


>  <placement_batch>  (1691) 
CpKRS_FrAncestor_bulkdock_iter2

>  <name>  (1691) 
FGVSQWUDEYIUMW-UHFFFAOYSA-N-P46

$$$$
CPPQLHAJBGBOEI-UHFFFAOYSA-N-P38
     RDKit          3D

 18 20  0  0  0  0  0  0  0  0999 V2000
    4.7852   -8.3910   21.8049 C   0  0  0  0  0  0  0  0  0  0  0  0
    4.7987   -9.3286   22.9627 C   0  0  0  0  0  0  0  0  0  0  0  0
    4.6474   -8.6778   24.3040 C   0  0  0  0  0  0  0  0  0  0  0  0
    5.7439  -10.4781   22.8670 C   0  0  0  0  0  0  0  0  0  0  0  0
    4.2746  -10.7253   22.7245 C   0  0  1  0  0  0  0  0  0  0  0  0
    3.6268  -11.4975   23.6997 N   0  0  0  0  0  0  0  0  0  0  0  0
    4.0781  -12.7860   24.4213 C   0  0  0  0  0  0  0  0  0  0  0  0
    5.0895  -13.3628   24.3740 O   0  0  0  0  0  0  0  0  0  0  0  0
    3.0212  -13.2984   25.3635 C   0  0  0  0  0  0  0  0  0  0  0  0
    1.7013  -12.8387   25.3749 C   0  0  0  0  0  0  0  0  0  0  0  0
    1.2946  -11.8881   24.5202 F   0  0  0  0  0  0  0  0  0  0  0  0
    0.7475  -13.3091   26.2890 C   0  0  0  0  0  0  0  0  0  0  0  0
    1.0954  -14.2616   27.2375 C   0  0  0  0  0  0  0  0  0  0  0  0
    2.3827  -14.7502   27.2128 C   0  0  0  0  0  0  0  0  0  0  0  0
    3.3232  -14.2778   26.2995 C   0  0  0  0  0  0  0  0  0  0  0  0
    4.5555  -14.8443   26.4912 O   0  0  0  0  0  0  0  0  0  0  0  0
    4.3007  -15.9554   27.3568 C   0  0  0  0  0  0  0  0  0  0  0  0
    3.0064  -15.7360   28.1186 C   0  0  0  0  0  0  0  0  0  0  0  0
  1  2  1  0
  2  3  1  0
  2  4  1  0
  4  5  1  0
  5  6  1  1
  6  7  1  0
  7  8  2  0
  7  9  1  0
  9 10  2  0
 10 11  1  0
 10 12  1  0
 12 13  2  0
 13 14  1  0
 14 15  2  0
 15 16  1  0
 16 17  1  0
 17 18  1  0
  5  2  1  0
 15  9  1  0
 18 14  1  0
M  END
>  <inchikey>  (1692) 
CPPQLHAJBGBOEI-UHFFFAOYSA-N

>  <tags>  (1692) 
fragmenstein_placed,CpKRS_FrAncestor_bulkdock_iter2

>  <ref_pdb>  (1692) 
x0654b

>  <energy_score>  (1692) 
-2.176725

>  <distance_score>  (1692) 
0.593033

>  <HIPPO Pose ID>  (1692) 
61682

>  <ref_mols>  (1692) 
x0555a

>  <smiles>  (1692) 
CC1(C)CC1NC(=O)c1c(F)ccc2c1OCC2

>  <HIPPO Compound ID>  (1692) 
453259

>  <alias>  (1692) 
CPPQLHAJBGBOEI-UHFFFAOYSA-N-P38

>  <subsites>  (1692) 


>  <placement_batch>  (1692) 
CpKRS_FrAncestor_bulkdock_iter2

>  <name>  (1692) 
CPPQLHAJBGBOEI-UHFFFAOYSA-N-P38

$$$$
GRAIRKBBMPHSEG-UHFFFAOYSA-N-P20
     RDKit          3D

 13 14  0  0  0  0  0  0  0  0999 V2000
    1.5827    4.7680   47.2344 C   0  0  0  0  0  0  0  0  0  0  0  0
    2.1670    4.6910   45.8742 C   0  0  2  0  0  0  0  0  0  0  0  0
    3.4372    3.9104   45.7576 C   0  0  0  0  0  0  0  0  0  0  0  0
    3.4240    5.3989   45.4796 C   0  0  1  0  0  0  0  0  0  0  0  0
    3.6778    5.8322   44.1552 N   0  0  0  0  0  0  0  0  0  0  0  0
    3.9589    5.0198   42.8687 C   0  0  0  0  0  0  0  0  0  0  0  0
    3.9487    3.8666   42.6846 O   0  0  0  0  0  0  0  0  0  0  0  0
    4.3854    5.9403   41.7982 C   0  0  0  0  0  0  0  0  0  0  0  0
    5.0328    5.5565   40.5930 C   0  0  0  0  0  0  0  0  0  0  0  0
    5.3724    6.7312   39.9735 C   0  0  0  0  0  0  0  0  0  0  0  0
    4.9333    7.7282   40.7931 N   0  0  0  0  0  0  0  0  0  0  0  0
    5.0672    9.1473   40.5702 C   0  0  0  0  0  0  0  0  0  0  0  0
    4.3684    7.2845   41.9395 N   0  0  0  0  0  0  0  0  0  0  0  0
  2  1  1  1
  2  3  1  0
  3  4  1  0
  4  5  1  6
  5  6  1  0
  6  7  2  0
  6  8  1  0
  8  9  1  0
  9 10  2  0
 10 11  1  0
 11 12  1  0
 11 13  1  0
  4  2  1  0
 13  8  2  0
M  END
>  <inchikey>  (1693) 
GRAIRKBBMPHSEG-UHFFFAOYSA-N

>  <tags>  (1693) 
fragmenstein_placed,CpKRS_FrAncestor_bulkdock_iter2

>  <ref_pdb>  (1693) 
x0654b

>  <energy_score>  (1693) 
-1.614398

>  <distance_score>  (1693) 
0.816907

>  <HIPPO Pose ID>  (1693) 
61686

>  <ref_mols>  (1693) 
x0456a

>  <smiles>  (1693) 
CC1CC1NC(=O)c1ccn(C)n1

>  <HIPPO Compound ID>  (1693) 
30856

>  <alias>  (1693) 
GRAIRKBBMPHSEG-UHFFFAOYSA-N-P20

>  <subsites>  (1693) 


>  <placement_batch>  (1693) 
CpKRS_FrAncestor_bulkdock_iter2

>  <name>  (1693) 
GRAIRKBBMPHSEG-UHFFFAOYSA-N-P20

$$$$
ITGUQNZHYKDWCN-UHFFFAOYSA-N-P20
     RDKit          3D

 13 14  0  0  0  0  0  0  0  0999 V2000
    3.1851    3.9788   46.2722 C   0  0  0  0  0  0  0  0  0  0  0  0
    2.1704    5.0529   46.2721 C   0  0  1  0  0  0  0  0  0  0  0  0
    2.5933    6.4776   46.4201 C   0  0  0  0  0  0  0  0  0  0  0  0
    1.9570    6.0191   45.1403 C   0  0  1  0  0  0  0  0  0  0  0  0
    2.7013    6.2127   43.9597 N   0  0  0  0  0  0  0  0  0  0  0  0
    3.3867    5.1867   43.0223 C   0  0  0  0  0  0  0  0  0  0  0  0
    3.3753    4.0180   43.0413 O   0  0  0  0  0  0  0  0  0  0  0  0
    4.1308    5.9596   42.0201 C   0  0  0  0  0  0  0  0  0  0  0  0
    4.1953    7.2843   41.9943 N   0  0  0  0  0  0  0  0  0  0  0  0
    4.9435    7.5435   40.8770 C   0  0  0  0  0  0  0  0  0  0  0  0
    5.3008    9.2895   40.2924 Br  0  0  0  0  0  0  0  0  0  0  0  0
    5.3837    6.3741   40.3122 C   0  0  0  0  0  0  0  0  0  0  0  0
    4.8788    5.3388   41.0509 O   0  0  0  0  0  0  0  0  0  0  0  0
  2  1  1  6
  2  3  1  0
  3  4  1  0
  4  5  1  6
  5  6  1  0
  6  7  2  0
  6  8  1  0
  8  9  2  0
  9 10  1  0
 10 11  1  0
 10 12  2  0
 12 13  1  0
  4  2  1  0
 13  8  1  0
M  END
>  <inchikey>  (1694) 
ITGUQNZHYKDWCN-UHFFFAOYSA-N

>  <tags>  (1694) 
fragmenstein_placed,CpKRS_FrAncestor_bulkdock_iter2

>  <ref_pdb>  (1694) 
x0654b

>  <energy_score>  (1694) 
-4.524668

>  <distance_score>  (1694) 
0.954409

>  <HIPPO Pose ID>  (1694) 
61687

>  <ref_mols>  (1694) 
x0456a

>  <smiles>  (1694) 
CC1CC1NC(=O)c1nc(Br)co1

>  <HIPPO Compound ID>  (1694) 
30857

>  <alias>  (1694) 
ITGUQNZHYKDWCN-UHFFFAOYSA-N-P20

>  <subsites>  (1694) 


>  <placement_batch>  (1694) 
CpKRS_FrAncestor_bulkdock_iter2

>  <name>  (1694) 
ITGUQNZHYKDWCN-UHFFFAOYSA-N-P20

$$$$
IVHVBGUFGHDEPB-UHFFFAOYSA-N-P20
     RDKit          3D

 13 14  0  0  0  0  0  0  0  0999 V2000
    3.3089    3.8244   46.2636 C   0  0  0  0  0  0  0  0  0  0  0  0
    2.5810    5.0858   46.5103 C   0  0  2  0  0  0  0  0  0  0  0  0
    1.3400    5.3848   45.7342 C   0  0  0  0  0  0  0  0  0  0  0  0
    2.5352    6.2669   45.5705 C   0  0  2  0  0  0  0  0  0  0  0  0
    3.1802    6.4001   44.3160 N   0  0  0  0  0  0  0  0  0  0  0  0
    3.5065    5.3343   43.2283 C   0  0  0  0  0  0  0  0  0  0  0  0
    3.3612    4.1724   43.2373 O   0  0  0  0  0  0  0  0  0  0  0  0
    4.1778    6.0257   42.1125 C   0  0  0  0  0  0  0  0  0  0  0  0
    4.2556    7.3443   42.0392 N   0  0  0  0  0  0  0  0  0  0  0  0
    4.9433    7.6888   40.8927 C   0  0  0  0  0  0  0  0  0  0  0  0
    5.1479    9.5086   40.4223 Br  0  0  0  0  0  0  0  0  0  0  0  0
    5.4837    6.6483   40.1712 C   0  0  0  0  0  0  0  0  0  0  0  0
    5.0853    5.1607   40.9300 S   0  0  0  0  0  0  0  0  0  0  0  0
  2  1  1  6
  2  3  1  0
  3  4  1  0
  4  5  1  6
  5  6  1  0
  6  7  2  0
  6  8  1  0
  8  9  2  0
  9 10  1  0
 10 11  1  0
 10 12  2  0
 12 13  1  0
  4  2  1  0
 13  8  1  0
M  END
>  <inchikey>  (1695) 
IVHVBGUFGHDEPB-UHFFFAOYSA-N

>  <tags>  (1695) 
fragmenstein_placed,CpKRS_FrAncestor_bulkdock_iter2

>  <ref_pdb>  (1695) 
x0654b

>  <energy_score>  (1695) 
-49.508509

>  <distance_score>  (1695) 
0.972142

>  <HIPPO Pose ID>  (1695) 
61688

>  <ref_mols>  (1695) 
x0456a

>  <smiles>  (1695) 
CC1CC1NC(=O)c1nc(Br)cs1

>  <HIPPO Compound ID>  (1695) 
30858

>  <alias>  (1695) 
IVHVBGUFGHDEPB-UHFFFAOYSA-N-P20

>  <subsites>  (1695) 


>  <placement_batch>  (1695) 
CpKRS_FrAncestor_bulkdock_iter2

>  <name>  (1695) 
IVHVBGUFGHDEPB-UHFFFAOYSA-N-P20

$$$$
XPYXASAGAWYQMY-UHFFFAOYSA-N-P20
     RDKit          3D

 13 14  0  0  0  0  0  0  0  0999 V2000
    2.6533    3.7711   46.9514 C   0  0  0  0  0  0  0  0  0  0  0  0
    3.0629    4.9763   46.1912 C   0  0  2  0  0  0  0  0  0  0  0  0
    2.2371    6.2258   46.2301 C   0  0  0  0  0  0  0  0  0  0  0  0
    2.2885    5.4072   44.9741 C   0  0  1  0  0  0  0  0  0  0  0  0
    3.0223    5.7819   43.8315 N   0  0  0  0  0  0  0  0  0  0  0  0
    3.7953    4.9184   42.8059 C   0  0  0  0  0  0  0  0  0  0  0  0
    4.0082    3.7705   42.7916 O   0  0  0  0  0  0  0  0  0  0  0  0
    4.3750    5.8206   41.7947 C   0  0  0  0  0  0  0  0  0  0  0  0
    4.2596    7.1367   41.8631 N   0  0  0  0  0  0  0  0  0  0  0  0
    4.9550    7.7091   40.8102 C   0  0  0  0  0  0  0  0  0  0  0  0
    4.9789    9.4085   40.6257 Cl  0  0  0  0  0  0  0  0  0  0  0  0
    5.6257    6.8253   39.9913 C   0  0  0  0  0  0  0  0  0  0  0  0
    5.3775    5.2194   40.5343 S   0  0  0  0  0  0  0  0  0  0  0  0
  2  1  1  1
  2  3  1  0
  3  4  1  0
  4  5  1  6
  5  6  1  0
  6  7  2  0
  6  8  1  0
  8  9  2  0
  9 10  1  0
 10 11  1  0
 10 12  2  0
 12 13  1  0
  4  2  1  0
 13  8  1  0
M  END
>  <inchikey>  (1696) 
XPYXASAGAWYQMY-UHFFFAOYSA-N

>  <tags>  (1696) 
fragmenstein_placed,CpKRS_FrAncestor_bulkdock_iter2

>  <ref_pdb>  (1696) 
x0654b

>  <energy_score>  (1696) 
-51.531695

>  <distance_score>  (1696) 
0.909134

>  <HIPPO Pose ID>  (1696) 
61689

>  <ref_mols>  (1696) 
x0456a

>  <smiles>  (1696) 
CC1CC1NC(=O)c1nc(Cl)cs1

>  <HIPPO Compound ID>  (1696) 
30859

>  <alias>  (1696) 
XPYXASAGAWYQMY-UHFFFAOYSA-N-P20

>  <subsites>  (1696) 


>  <placement_batch>  (1696) 
CpKRS_FrAncestor_bulkdock_iter2

>  <name>  (1696) 
XPYXASAGAWYQMY-UHFFFAOYSA-N-P20

$$$$
ZGDSSMHYOFDEFW-UHFFFAOYSA-N-P60
     RDKit          3D

 16 18  0  0  0  0  0  0  0  0999 V2000
   -0.9044  -28.4062   23.7842 C   0  0  0  0  0  0  0  0  0  0  0  0
   -1.4142  -27.1061   24.3324 C   0  0  0  0  0  0  0  0  0  0  0  0
   -0.7836  -25.8922   23.9859 C   0  0  0  0  0  0  0  0  0  0  0  0
   -1.3177  -24.6628   24.3839 C   0  0  0  0  0  0  0  0  0  0  0  0
   -2.4924  -24.6680   25.1102 C   0  0  0  0  0  0  0  0  0  0  0  0
   -3.1072  -25.8648   25.4751 C   0  0  0  0  0  0  0  0  0  0  0  0
   -2.5824  -27.0889   25.1053 C   0  0  0  0  0  0  0  0  0  0  0  0
   -4.3831  -25.5598   26.1936 C   0  0  0  0  0  0  0  0  0  0  0  0
   -4.6708  -24.1626   25.7885 N   0  0  0  0  0  0  0  0  0  0  0  0
   -5.5886  -23.4668   26.6905 C   0  0  1  0  0  0  0  0  0  0  0  0
   -5.9848  -22.0822   26.2083 C   0  0  0  0  0  0  0  0  0  0  0  0
   -7.1384  -22.3742   25.2843 C   0  0  0  0  0  0  0  0  0  0  0  0
   -7.8353  -23.4541   25.9021 O   0  0  0  0  0  0  0  0  0  0  0  0
   -6.9582  -24.1445   26.6944 C   0  0  0  0  0  0  0  0  0  0  0  0
   -7.2470  -25.1652   27.3025 O   0  0  0  0  0  0  0  0  0  0  0  0
   -3.3539  -23.5279   25.5575 C   0  0  0  0  0  0  0  0  0  0  0  0
  1  2  1  0
  2  3  2  0
  3  4  1  0
  4  5  2  0
  5  6  1  0
  6  7  2  0
  6  8  1  0
  8  9  1  0
 10  9  1  6
 10 11  1  0
 11 12  1  0
 12 13  1  0
 13 14  1  0
 14 15  2  0
  9 16  1  0
  7  2  1  0
 14 10  1  0
 16  5  1  0
M  END
>  <inchikey>  (1697) 
ZGDSSMHYOFDEFW-UHFFFAOYSA-N

>  <tags>  (1697) 
fragmenstein_placed,CpKRS_FrAncestor_bulkdock_iter2

>  <ref_pdb>  (1697) 
x0654b

>  <energy_score>  (1697) 
-17.610073

>  <distance_score>  (1697) 
0.827009

>  <HIPPO Pose ID>  (1697) 
61691

>  <ref_mols>  (1697) 
x0675b

>  <smiles>  (1697) 
Cc1ccc2c(c1)CN(C1CCOC1=O)C2

>  <HIPPO Compound ID>  (1697) 
453260

>  <alias>  (1697) 
ZGDSSMHYOFDEFW-UHFFFAOYSA-N-P60

>  <subsites>  (1697) 


>  <placement_batch>  (1697) 
CpKRS_FrAncestor_bulkdock_iter2

>  <name>  (1697) 
ZGDSSMHYOFDEFW-UHFFFAOYSA-N-P60

$$$$
VRGHOHOWNSLULQ-UHFFFAOYSA-N-P60
     RDKit          3D

 14 15  0  0  0  0  0  0  0  0999 V2000
   -0.9976  -28.4582   23.6849 C   0  0  0  0  0  0  0  0  0  0  0  0
   -1.4311  -27.1408   24.2544 C   0  0  0  0  0  0  0  0  0  0  0  0
   -0.8329  -25.9518   23.8269 C   0  0  0  0  0  0  0  0  0  0  0  0
   -1.3141  -24.7211   24.2725 C   0  0  0  0  0  0  0  0  0  0  0  0
   -2.4144  -24.6634   25.1340 C   0  0  0  0  0  0  0  0  0  0  0  0
   -2.9961  -25.8499   25.6074 C   0  0  0  0  0  0  0  0  0  0  0  0
   -2.5032  -27.0816   25.1528 C   0  0  0  0  0  0  0  0  0  0  0  0
   -4.2248  -25.8255   26.4936 C   0  0  0  0  0  0  0  0  0  0  0  0
   -4.5522  -24.4964   27.0331 N   0  0  0  0  0  0  0  0  0  0  0  0
   -5.8500  -24.4874   27.7378 C   0  0  0  0  0  0  0  0  0  0  0  0
   -7.0521  -24.7348   26.9113 C   0  0  0  0  0  0  0  0  0  0  0  0
   -7.9949  -24.9283   26.2615 N   0  0  0  0  0  0  0  0  0  0  0  0
   -4.4560  -23.4700   25.9886 C   0  0  0  0  0  0  0  0  0  0  0  0
   -2.9921  -23.3367   25.5478 C   0  0  0  0  0  0  0  0  0  0  0  0
  1  2  1  0
  2  3  2  0
  3  4  1  0
  4  5  2  0
  5  6  1  0
  6  7  2  0
  6  8  1  0
  8  9  1  0
  9 10  1  0
 10 11  1  0
 11 12  3  0
  9 13  1  0
 13 14  1  0
  7  2  1  0
 14  5  1  0
M  END
>  <inchikey>  (1698) 
VRGHOHOWNSLULQ-UHFFFAOYSA-N

>  <tags>  (1698) 
fragmenstein_placed,CpKRS_FrAncestor_bulkdock_iter2

>  <ref_pdb>  (1698) 
x0654b

>  <energy_score>  (1698) 
-20.722114

>  <distance_score>  (1698) 
0.765319

>  <HIPPO Pose ID>  (1698) 
61693

>  <ref_mols>  (1698) 
x0675b

>  <smiles>  (1698) 
Cc1ccc2c(c1)CN(CC#N)CC2

>  <HIPPO Compound ID>  (1698) 
453261

>  <alias>  (1698) 
VRGHOHOWNSLULQ-UHFFFAOYSA-N-P60

>  <subsites>  (1698) 


>  <placement_batch>  (1698) 
CpKRS_FrAncestor_bulkdock_iter2

>  <name>  (1698) 
VRGHOHOWNSLULQ-UHFFFAOYSA-N-P60

$$$$
UJJCASODAZODCK-UHFFFAOYSA-N-P38
     RDKit          3D

 17 18  0  0  0  0  0  0  0  0999 V2000
    1.1452  -12.1405   24.3138 C   0  0  0  0  0  0  0  0  0  0  0  0
    1.8091  -12.9893   25.3617 C   0  0  0  0  0  0  0  0  0  0  0  0
    0.9513  -13.4603   26.3784 C   0  0  0  0  0  0  0  0  0  0  0  0
    1.3961  -14.3561   27.3437 C   0  0  0  0  0  0  0  0  0  0  0  0
    2.7030  -14.8115   27.2985 C   0  0  0  0  0  0  0  0  0  0  0  0
    3.2693  -16.0821   28.5706 Br  0  0  0  0  0  0  0  0  0  0  0  0
    3.5855  -14.3245   26.3391 C   0  0  0  0  0  0  0  0  0  0  0  0
    3.1737  -13.3732   25.3795 C   0  0  0  0  0  0  0  0  0  0  0  0
    4.2762  -12.9275   24.4218 C   0  0  0  0  0  0  0  0  0  0  0  0
    5.1596  -13.6636   24.2666 O   0  0  0  0  0  0  0  0  0  0  0  0
    3.9756  -11.5870   23.7539 N   0  0  0  0  0  0  0  0  0  0  0  0
    4.7469  -10.8160   22.8172 C   0  0  0  0  0  0  0  0  0  0  0  0
    4.9787   -9.4273   23.3611 C   0  0  0  0  0  0  0  0  0  0  0  0
    3.7529   -8.7242   23.9115 C   0  0  0  0  0  0  0  0  0  0  0  0
    6.2002   -9.1478   24.2545 C   0  0  0  0  0  0  0  0  0  0  0  0
    6.5733   -8.0276   23.4044 O   0  0  0  0  0  0  0  0  0  0  0  0
    5.7444   -8.5652   22.3408 C   0  0  0  0  0  0  0  0  0  0  0  0
  1  2  1  0
  2  3  2  0
  3  4  1  0
  4  5  2  0
  5  6  1  0
  5  7  1  0
  7  8  2  0
  8  9  1  0
  9 10  2  0
  9 11  1  0
 11 12  1  0
 12 13  1  0
 13 14  1  0
 13 15  1  0
 15 16  1  0
 16 17  1  0
  8  2  1  0
 17 13  1  0
M  END
>  <inchikey>  (1699) 
UJJCASODAZODCK-UHFFFAOYSA-N

>  <tags>  (1699) 
fragmenstein_placed,CpKRS_FrAncestor_bulkdock_iter2

>  <ref_pdb>  (1699) 
x0654b

>  <energy_score>  (1699) 
-33.612998

>  <distance_score>  (1699) 
0.591495

>  <HIPPO Pose ID>  (1699) 
61694

>  <ref_mols>  (1699) 
x0555a

>  <smiles>  (1699) 
Cc1ccc(Br)cc1C(=O)NCC1(C)COC1

>  <HIPPO Compound ID>  (1699) 
453262

>  <alias>  (1699) 
UJJCASODAZODCK-UHFFFAOYSA-N-P38

>  <subsites>  (1699) 


>  <placement_batch>  (1699) 
CpKRS_FrAncestor_bulkdock_iter2

>  <name>  (1699) 
UJJCASODAZODCK-UHFFFAOYSA-N-P38

$$$$
FFNAEAXXXQRAAS-UHFFFAOYSA-N-P64
     RDKit          3D

 17 18  0  0  0  0  0  0  0  0999 V2000
    1.2346  -12.5781   24.6184 C   0  0  0  0  0  0  0  0  0  0  0  0
    1.8212  -13.4548   25.6911 C   0  0  0  0  0  0  0  0  0  0  0  0
    1.1090  -13.6222   26.8852 C   0  0  0  0  0  0  0  0  0  0  0  0
    1.5792  -14.4699   27.8867 C   0  0  0  0  0  0  0  0  0  0  0  0
    2.7706  -15.1644   27.7108 C   0  0  0  0  0  0  0  0  0  0  0  0
    3.3375  -16.3115   29.0946 Br  0  0  0  0  0  0  0  0  0  0  0  0
    3.5150  -15.0027   26.5438 C   0  0  0  0  0  0  0  0  0  0  0  0
    3.0467  -14.1342   25.5435 C   0  0  0  0  0  0  0  0  0  0  0  0
    3.7912  -14.0873   24.2581 C   0  0  0  0  0  0  0  0  0  0  0  0
    3.8893  -15.0793   23.6580 O   0  0  0  0  0  0  0  0  0  0  0  0
    4.2272  -12.6590   23.8991 N   0  0  0  0  0  0  0  0  0  0  0  0
    4.7909  -12.1318   22.6862 C   0  0  0  0  0  0  0  0  0  0  0  0
    5.0186  -10.6672   22.7443 C   0  0  0  0  0  0  0  0  0  0  0  0
    5.1747   -9.7047   21.7725 C   0  0  0  0  0  0  0  0  0  0  0  0
    5.3801   -8.5155   22.4873 C   0  0  0  0  0  0  0  0  0  0  0  0
    5.3310   -8.7113   23.8047 N   0  0  0  0  0  0  0  0  0  0  0  0
    5.1291  -10.0742   23.9673 O   0  0  0  0  0  0  0  0  0  0  0  0
  1  2  1  0
  2  3  2  0
  3  4  1  0
  4  5  2  0
  5  6  1  0
  5  7  1  0
  7  8  2  0
  8  9  1  0
  9 10  2  0
  9 11  1  0
 11 12  1  0
 12 13  1  0
 13 14  2  0
 14 15  1  0
 15 16  2  0
 16 17  1  0
  8  2  1  0
 17 13  1  0
M  END
>  <inchikey>  (1700) 
FFNAEAXXXQRAAS-UHFFFAOYSA-N

>  <tags>  (1700) 
fragmenstein_placed,CpKRS_FrAncestor_bulkdock_iter2

>  <ref_pdb>  (1700) 
x0654b

>  <energy_score>  (1700) 
-6.168258

>  <distance_score>  (1700) 
0.947125

>  <HIPPO Pose ID>  (1700) 
61696

>  <ref_mols>  (1700) 
x0787b

>  <smiles>  (1700) 
Cc1ccc(Br)cc1C(=O)NCc1ccno1

>  <HIPPO Compound ID>  (1700) 
236410

>  <alias>  (1700) 
FFNAEAXXXQRAAS-UHFFFAOYSA-N-P64

>  <subsites>  (1700) 


>  <placement_batch>  (1700) 
CpKRS_FrAncestor_bulkdock_iter2

>  <name>  (1700) 
FFNAEAXXXQRAAS-UHFFFAOYSA-N-P64

$$$$
BQXHYCRRXJHDAN-UHFFFAOYSA-N-P64
     RDKit          3D

 17 18  0  0  0  0  0  0  0  0999 V2000
    1.2718  -12.5139   24.5856 C   0  0  0  0  0  0  0  0  0  0  0  0
    1.8595  -13.3897   25.6588 C   0  0  0  0  0  0  0  0  0  0  0  0
    1.1215  -13.5970   26.8318 C   0  0  0  0  0  0  0  0  0  0  0  0
    1.5855  -14.4539   27.8284 C   0  0  0  0  0  0  0  0  0  0  0  0
    2.7963  -15.1177   27.6691 C   0  0  0  0  0  0  0  0  0  0  0  0
    3.3519  -16.2817   29.0445 Br  0  0  0  0  0  0  0  0  0  0  0  0
    3.5668  -14.9135   26.5248 C   0  0  0  0  0  0  0  0  0  0  0  0
    3.1065  -14.0338   25.5291 C   0  0  0  0  0  0  0  0  0  0  0  0
    3.8810  -13.9502   24.2608 C   0  0  0  0  0  0  0  0  0  0  0  0
    4.0337  -14.9380   23.6648 O   0  0  0  0  0  0  0  0  0  0  0  0
    4.2675  -12.5048   23.9095 N   0  0  0  0  0  0  0  0  0  0  0  0
    4.8388  -11.9554   22.7079 C   0  0  0  0  0  0  0  0  0  0  0  0
    5.0842  -10.4993   22.8195 C   0  0  0  0  0  0  0  0  0  0  0  0
    5.0613   -9.4598   21.9150 C   0  0  0  0  0  0  0  0  0  0  0  0
    5.3651   -8.2752   22.5382 N   0  0  0  0  0  0  0  0  0  0  0  0
    5.6297   -8.6443   23.7727 C   0  0  0  0  0  0  0  0  0  0  0  0
    5.4553   -9.9719   24.0302 O   0  0  0  0  0  0  0  0  0  0  0  0
  1  2  1  0
  2  3  2  0
  3  4  1  0
  4  5  2  0
  5  6  1  0
  5  7  1  0
  7  8  2  0
  8  9  1  0
  9 10  2  0
  9 11  1  0
 11 12  1  0
 12 13  1  0
 13 14  2  0
 14 15  1  0
 15 16  2  0
 16 17  1  0
  8  2  1  0
 17 13  1  0
M  END
>  <inchikey>  (1701) 
BQXHYCRRXJHDAN-UHFFFAOYSA-N

>  <tags>  (1701) 
fragmenstein_placed,CpKRS_FrAncestor_bulkdock_iter2

>  <ref_pdb>  (1701) 
x0654b

>  <energy_score>  (1701) 
-2.696336

>  <distance_score>  (1701) 
0.856407

>  <HIPPO Pose ID>  (1701) 
61698

>  <ref_mols>  (1701) 
x0787b

>  <smiles>  (1701) 
Cc1ccc(Br)cc1C(=O)NCc1cnco1

>  <HIPPO Compound ID>  (1701) 
453263

>  <alias>  (1701) 
BQXHYCRRXJHDAN-UHFFFAOYSA-N-P64

>  <subsites>  (1701) 


>  <placement_batch>  (1701) 
CpKRS_FrAncestor_bulkdock_iter2

>  <name>  (1701) 
BQXHYCRRXJHDAN-UHFFFAOYSA-N-P64

$$$$
LOOQRXFQLYIRJC-UHFFFAOYSA-N-P14
     RDKit          3D

 17 19  0  0  0  0  0  0  0  0999 V2000
   -0.3229  -12.3170   25.4314 C   0  0  0  0  0  0  0  0  0  0  0  0
    0.9012  -13.0173   25.9380 C   0  0  0  0  0  0  0  0  0  0  0  0
    0.8218  -13.9512   26.9541 C   0  0  0  0  0  0  0  0  0  0  0  0
    1.9442  -14.6916   27.3116 C   0  0  0  0  0  0  0  0  0  0  0  0
    3.1426  -14.5006   26.6318 C   0  0  0  0  0  0  0  0  0  0  0  0
    4.5646  -15.6457   27.1048 Br  0  0  0  0  0  0  0  0  0  0  0  0
    3.1688  -13.5158   25.6503 C   0  0  0  0  0  0  0  0  0  0  0  0
    4.4335  -13.0859   24.9349 C   0  0  0  0  0  0  0  0  0  0  0  0
    5.4254  -13.6846   25.0271 O   0  0  0  0  0  0  0  0  0  0  0  0
    4.1370  -11.7536   24.2314 N   0  0  0  0  0  0  0  0  0  0  0  0
    5.0084  -10.8399   23.5808 C   0  0  1  0  0  0  0  0  0  0  0  0
    4.8706  -10.7760   22.0601 C   0  0  0  0  0  0  0  0  0  0  0  0
    5.5691   -9.4853   21.7305 C   0  0  1  0  0  0  0  0  0  0  0  0
    4.8775   -8.1590   21.7314 C   0  0  0  0  0  0  0  0  0  0  0  0
    5.5625   -8.6270   22.9714 C   0  0  1  0  0  0  0  0  0  0  0  0
    4.8522   -9.3874   24.0448 C   0  0  0  0  0  0  0  0  0  0  0  0
    2.0623  -12.7551   25.3141 N   0  0  0  0  0  0  0  0  0  0  0  0
  1  2  1  0
  2  3  2  0
  3  4  1  0
  4  5  2  0
  5  6  1  0
  5  7  1  0
  7  8  1  0
  8  9  2  0
  8 10  1  0
 11 10  1  1
 11 12  1  0
 13 12  1  1
 13 14  1  0
 15 14  1  6
 15 16  1  0
  7 17  2  0
 17  2  1  0
 16 11  1  0
 15 13  1  0
M  END
>  <inchikey>  (1702) 
LOOQRXFQLYIRJC-UHFFFAOYSA-N

>  <tags>  (1702) 
fragmenstein_placed,CpKRS_FrAncestor_bulkdock_iter2

>  <ref_pdb>  (1702) 
x0654b

>  <energy_score>  (1702) 
-9.870224

>  <distance_score>  (1702) 
0.505272

>  <HIPPO Pose ID>  (1702) 
61702

>  <ref_mols>  (1702) 
x0421d

>  <smiles>  (1702) 
Cc1ccc(Br)c(C(=O)NC2CC3CC3C2)n1

>  <HIPPO Compound ID>  (1702) 
453264

>  <alias>  (1702) 
LOOQRXFQLYIRJC-UHFFFAOYSA-N-P14

>  <subsites>  (1702) 


>  <placement_batch>  (1702) 
CpKRS_FrAncestor_bulkdock_iter2

>  <name>  (1702) 
LOOQRXFQLYIRJC-UHFFFAOYSA-N-P14

$$$$
LIHIQAYPLLADAT-UHFFFAOYSA-N-P11
     RDKit          3D

 16 17  0  0  0  0  0  0  0  0999 V2000
   -0.3731  -12.6612   25.5528 C   0  0  0  0  0  0  0  0  0  0  0  0
    0.8735  -13.4178   25.9003 C   0  0  0  0  0  0  0  0  0  0  0  0
    0.8096  -14.5375   26.7159 C   0  0  0  0  0  0  0  0  0  0  0  0
    1.9837  -15.2140   27.0302 C   0  0  0  0  0  0  0  0  0  0  0  0
    3.2025  -14.7753   26.5118 C   0  0  0  0  0  0  0  0  0  0  0  0
    4.7397  -15.7016   27.0906 Br  0  0  0  0  0  0  0  0  0  0  0  0
    3.1898  -13.6711   25.6646 C   0  0  0  0  0  0  0  0  0  0  0  0
    4.4448  -13.0895   25.0178 C   0  0  0  0  0  0  0  0  0  0  0  0
    5.4592  -13.6582   25.0487 O   0  0  0  0  0  0  0  0  0  0  0  0
    4.0939  -11.7077   24.4388 N   0  0  0  0  0  0  0  0  0  0  0  0
    4.8916  -10.7822   23.6973 C   0  0  0  0  0  0  0  0  0  0  0  0
    4.9335  -11.0900   22.2074 C   0  0  0  0  0  0  0  0  0  0  0  0
    5.3423   -9.7697   21.5589 C   0  0  0  0  0  0  0  0  0  0  0  0
    5.1664   -8.6875   22.6209 C   0  0  0  0  0  0  0  0  0  0  0  0
    4.3879   -9.3500   23.7470 C   0  0  0  0  0  0  0  0  0  0  0  0
    2.0355  -12.9713   25.3717 N   0  0  0  0  0  0  0  0  0  0  0  0
  1  2  1  0
  2  3  2  0
  3  4  1  0
  4  5  2  0
  5  6  1  0
  5  7  1  0
  7  8  1  0
  8  9  2  0
  8 10  1  0
 10 11  1  0
 11 12  1  0
 12 13  1  0
 13 14  1  0
 14 15  1  0
  7 16  2  0
 16  2  1  0
 15 11  1  0
M  END
>  <inchikey>  (1703) 
LIHIQAYPLLADAT-UHFFFAOYSA-N

>  <tags>  (1703) 
fragmenstein_placed,CpKRS_FrAncestor_bulkdock_iter2

>  <ref_pdb>  (1703) 
x0654b

>  <energy_score>  (1703) 
-14.048646

>  <distance_score>  (1703) 
0.626465

>  <HIPPO Pose ID>  (1703) 
61703

>  <ref_mols>  (1703) 
x0421a

>  <smiles>  (1703) 
Cc1ccc(Br)c(C(=O)NC2CCCC2)n1

>  <HIPPO Compound ID>  (1703) 
453265

>  <alias>  (1703) 
LIHIQAYPLLADAT-UHFFFAOYSA-N-P11

>  <subsites>  (1703) 


>  <placement_batch>  (1703) 
CpKRS_FrAncestor_bulkdock_iter2

>  <name>  (1703) 
LIHIQAYPLLADAT-UHFFFAOYSA-N-P11

$$$$
LICWEBLWWQZWBQ-SNVBAGLBSA-N-P13
     RDKit          3D

 17 18  0  0  0  0  0  0  0  0999 V2000
   -0.3858  -12.7478   25.5883 C   0  0  0  0  0  0  0  0  0  0  0  0
    0.9132  -13.4321   25.8925 C   0  0  0  0  0  0  0  0  0  0  0  0
    0.9527  -14.5335   26.7341 C   0  0  0  0  0  0  0  0  0  0  0  0
    2.1606  -15.2030   26.9210 C   0  0  0  0  0  0  0  0  0  0  0  0
    3.3066  -14.7756   26.2535 C   0  0  0  0  0  0  0  0  0  0  0  0
    4.8970  -15.7377   26.5654 Br  0  0  0  0  0  0  0  0  0  0  0  0
    3.1960  -13.6595   25.4351 C   0  0  0  0  0  0  0  0  0  0  0  0
    4.3688  -13.0733   24.6762 C   0  0  0  0  0  0  0  0  0  0  0  0
    5.2927  -13.7227   24.4014 O   0  0  0  0  0  0  0  0  0  0  0  0
    4.1031  -11.5779   24.4558 N   0  0  0  0  0  0  0  0  0  0  0  0
    4.8794  -10.5824   23.7650 C   0  0  2  0  0  0  0  0  0  0  0  0
    4.7093   -9.1918   24.3913 C   0  0  0  0  0  0  0  0  0  0  0  0
    5.1771   -8.0785   23.5037 C   0  0  0  0  0  0  0  0  0  0  0  0
    5.4364   -8.2453   22.2013 C   0  0  0  0  0  0  0  0  0  0  0  0
    5.3130   -9.5635   21.5053 C   0  0  0  0  0  0  0  0  0  0  0  0
    4.5099  -10.5925   22.2870 C   0  0  0  0  0  0  0  0  0  0  0  0
    2.0164  -12.9719   25.2617 N   0  0  0  0  0  0  0  0  0  0  0  0
  1  2  1  0
  2  3  2  0
  3  4  1  0
  4  5  2  0
  5  6  1  0
  5  7  1  0
  7  8  1  0
  8  9  2  0
  8 10  1  0
 11 10  1  1
 11 12  1  0
 12 13  1  0
 13 14  2  0
 14 15  1  0
 15 16  1  0
  7 17  2  0
 17  2  1  0
 16 11  1  0
M  END
>  <inchikey>  (1704) 
LICWEBLWWQZWBQ-UHFFFAOYSA-N

>  <tags>  (1704) 
fragmenstein_placed,CpKRS_FrAncestor_bulkdock_iter2

>  <ref_pdb>  (1704) 
x0654b

>  <energy_score>  (1704) 
-22.833354

>  <distance_score>  (1704) 
0.526292

>  <HIPPO Pose ID>  (1704) 
61713

>  <ref_mols>  (1704) 
x0421c

>  <smiles>  (1704) 
Cc1ccc(Br)c(C(=O)N[C@@H]2CC=CCC2)n1

>  <HIPPO Compound ID>  (1704) 
453266

>  <alias>  (1704) 
LICWEBLWWQZWBQ-SNVBAGLBSA-N-P13

>  <subsites>  (1704) 


>  <placement_batch>  (1704) 
CpKRS_FrAncestor_bulkdock_iter2

>  <name>  (1704) 
LICWEBLWWQZWBQ-SNVBAGLBSA-N-P13

$$$$
WSIVIXGGBMBFMV-UHFFFAOYSA-N-P38
     RDKit          3D

 17 18  0  0  0  0  0  0  0  0999 V2000
    3.3938  -16.1840   28.2969 C   0  0  0  0  0  0  0  0  0  0  0  0
    2.9057  -15.1193   27.3668 C   0  0  0  0  0  0  0  0  0  0  0  0
    1.6088  -14.6349   27.4724 C   0  0  0  0  0  0  0  0  0  0  0  0
    1.1740  -13.6397   26.6066 C   0  0  0  0  0  0  0  0  0  0  0  0
    2.0394  -13.0863   25.6453 C   0  0  0  0  0  0  0  0  0  0  0  0
    1.2539  -11.6499   24.6852 Br  0  0  0  0  0  0  0  0  0  0  0  0
    3.3550  -13.5632   25.5045 C   0  0  0  0  0  0  0  0  0  0  0  0
    4.4754  -13.0366   24.6066 C   0  0  0  0  0  0  0  0  0  0  0  0
    5.5532  -13.3813   24.8774 O   0  0  0  0  0  0  0  0  0  0  0  0
    3.9872  -12.0474   23.5438 N   0  0  0  0  0  0  0  0  0  0  0  0
    4.7112  -11.3405   22.5226 C   0  0  0  0  0  0  0  0  0  0  0  0
    4.7928   -9.8716   22.9141 C   0  0  0  0  0  0  0  0  0  0  0  0
    5.6329   -9.5462   24.1381 C   0  0  0  0  0  0  0  0  0  0  0  0
    3.4667   -9.1073   22.9376 C   0  0  0  0  0  0  0  0  0  0  0  0
    3.8721   -8.2767   21.8365 O   0  0  0  0  0  0  0  0  0  0  0  0
    5.1287   -8.9785   21.7122 C   0  0  0  0  0  0  0  0  0  0  0  0
    3.7473  -14.6102   26.3683 C   0  0  0  0  0  0  0  0  0  0  0  0
  1  2  1  0
  2  3  2  0
  3  4  1  0
  4  5  2  0
  5  6  1  0
  5  7  1  0
  7  8  1  0
  8  9  2  0
  8 10  1  0
 10 11  1  0
 11 12  1  0
 12 13  1  0
 12 14  1  0
 14 15  1  0
 15 16  1  0
  7 17  2  0
 17  2  1  0
 16 12  1  0
M  END
>  <inchikey>  (1705) 
WSIVIXGGBMBFMV-UHFFFAOYSA-N

>  <tags>  (1705) 
fragmenstein_placed,CpKRS_FrAncestor_bulkdock_iter2

>  <ref_pdb>  (1705) 
x0654b

>  <energy_score>  (1705) 
-11.629431

>  <distance_score>  (1705) 
0.426262

>  <HIPPO Pose ID>  (1705) 
61723

>  <ref_mols>  (1705) 
x0555a

>  <smiles>  (1705) 
Cc1ccc(Br)c(C(=O)NCC2(C)COC2)c1

>  <HIPPO Compound ID>  (1705) 
453267

>  <alias>  (1705) 
WSIVIXGGBMBFMV-UHFFFAOYSA-N-P38

>  <subsites>  (1705) 


>  <placement_batch>  (1705) 
CpKRS_FrAncestor_bulkdock_iter2

>  <name>  (1705) 
WSIVIXGGBMBFMV-UHFFFAOYSA-N-P38

$$$$
IIDXJLFULHCFLB-UHFFFAOYSA-N-P63
     RDKit          3D

 17 18  0  0  0  0  0  0  0  0999 V2000
    3.0980  -16.9380   27.6858 C   0  0  0  0  0  0  0  0  0  0  0  0
    2.7186  -15.6870   26.9654 C   0  0  0  0  0  0  0  0  0  0  0  0
    1.4427  -15.1520   27.0917 C   0  0  0  0  0  0  0  0  0  0  0  0
    1.1191  -13.9663   26.4408 C   0  0  0  0  0  0  0  0  0  0  0  0
    2.0604  -13.3038   25.6373 C   0  0  0  0  0  0  0  0  0  0  0  0
    1.4430  -11.6574   24.9156 Br  0  0  0  0  0  0  0  0  0  0  0  0
    3.3442  -13.8453   25.4633 C   0  0  0  0  0  0  0  0  0  0  0  0
    4.4705  -13.2514   24.6532 C   0  0  0  0  0  0  0  0  0  0  0  0
    5.5532  -13.4078   25.0496 O   0  0  0  0  0  0  0  0  0  0  0  0
    3.9648  -12.5065   23.4145 N   0  0  0  0  0  0  0  0  0  0  0  0
    4.6702  -11.7164   22.4514 C   0  0  0  0  0  0  0  0  0  0  0  0
    4.8958  -10.3447   22.9821 C   0  0  0  0  0  0  0  0  0  0  0  0
    5.7930   -9.3483   22.6788 C   0  0  0  0  0  0  0  0  0  0  0  0
    5.5164   -8.3315   23.6081 C   0  0  0  0  0  0  0  0  0  0  0  0
    4.4562   -8.6234   24.3641 N   0  0  0  0  0  0  0  0  0  0  0  0
    4.0785   -9.8988   23.9802 O   0  0  0  0  0  0  0  0  0  0  0  0
    3.6596  -15.0319   26.1556 C   0  0  0  0  0  0  0  0  0  0  0  0
  1  2  1  0
  2  3  2  0
  3  4  1  0
  4  5  2  0
  5  6  1  0
  5  7  1  0
  7  8  1  0
  8  9  2  0
  8 10  1  0
 10 11  1  0
 11 12  1  0
 12 13  2  0
 13 14  1  0
 14 15  2  0
 15 16  1  0
  7 17  2  0
 17  2  1  0
 16 12  1  0
M  END
>  <inchikey>  (1706) 
IIDXJLFULHCFLB-UHFFFAOYSA-N

>  <tags>  (1706) 
fragmenstein_placed,CpKRS_FrAncestor_bulkdock_iter2

>  <ref_pdb>  (1706) 
x0654b

>  <energy_score>  (1706) 
-9.8843

>  <distance_score>  (1706) 
0.699515

>  <HIPPO Pose ID>  (1706) 
61724

>  <ref_mols>  (1706) 
x0787a

>  <smiles>  (1706) 
Cc1ccc(Br)c(C(=O)NCc2ccno2)c1

>  <HIPPO Compound ID>  (1706) 
236420

>  <alias>  (1706) 
IIDXJLFULHCFLB-UHFFFAOYSA-N-P63

>  <subsites>  (1706) 


>  <placement_batch>  (1706) 
CpKRS_FrAncestor_bulkdock_iter2

>  <name>  (1706) 
IIDXJLFULHCFLB-UHFFFAOYSA-N-P63

$$$$
SLMNVNFRNYVGET-UHFFFAOYSA-N-P64
     RDKit          3D

 17 18  0  0  0  0  0  0  0  0999 V2000
    3.4841  -16.1638   28.8513 C   0  0  0  0  0  0  0  0  0  0  0  0
    3.0110  -15.2243   27.7834 C   0  0  0  0  0  0  0  0  0  0  0  0
    1.7344  -14.6782   27.8610 C   0  0  0  0  0  0  0  0  0  0  0  0
    1.2776  -13.8197   26.8630 C   0  0  0  0  0  0  0  0  0  0  0  0
    2.0824  -13.4949   25.7594 C   0  0  0  0  0  0  0  0  0  0  0  0
    1.2322  -12.4045   24.4526 Br  0  0  0  0  0  0  0  0  0  0  0  0
    3.3776  -14.0221   25.6573 C   0  0  0  0  0  0  0  0  0  0  0  0
    4.3296  -13.8318   24.4989 C   0  0  0  0  0  0  0  0  0  0  0  0
    5.0326  -14.7293   24.2598 O   0  0  0  0  0  0  0  0  0  0  0  0
    4.1866  -12.4665   23.8073 N   0  0  0  0  0  0  0  0  0  0  0  0
    4.8110  -11.9509   22.6160 C   0  0  0  0  0  0  0  0  0  0  0  0
    5.0805  -10.5013   22.7180 C   0  0  0  0  0  0  0  0  0  0  0  0
    5.4357   -9.6282   23.7211 C   0  0  0  0  0  0  0  0  0  0  0  0
    5.5787   -8.3571   23.2249 N   0  0  0  0  0  0  0  0  0  0  0  0
    5.3701   -8.5138   21.9408 C   0  0  0  0  0  0  0  0  0  0  0  0
    5.0332   -9.7725   21.5556 O   0  0  0  0  0  0  0  0  0  0  0  0
    3.8174  -14.9008   26.6776 C   0  0  0  0  0  0  0  0  0  0  0  0
  1  2  1  0
  2  3  2  0
  3  4  1  0
  4  5  2  0
  5  6  1  0
  5  7  1  0
  7  8  1  0
  8  9  2  0
  8 10  1  0
 10 11  1  0
 11 12  1  0
 12 13  2  0
 13 14  1  0
 14 15  2  0
 15 16  1  0
  7 17  2  0
 17  2  1  0
 16 12  1  0
M  END
>  <inchikey>  (1707) 
SLMNVNFRNYVGET-UHFFFAOYSA-N

>  <tags>  (1707) 
fragmenstein_placed,CpKRS_FrAncestor_bulkdock_iter2

>  <ref_pdb>  (1707) 
x0654b

>  <energy_score>  (1707) 
-1.479851

>  <distance_score>  (1707) 
0.705146

>  <HIPPO Pose ID>  (1707) 
61727

>  <ref_mols>  (1707) 
x0787b

>  <smiles>  (1707) 
Cc1ccc(Br)c(C(=O)NCc2cnco2)c1

>  <HIPPO Compound ID>  (1707) 
453268

>  <alias>  (1707) 
SLMNVNFRNYVGET-UHFFFAOYSA-N-P64

>  <subsites>  (1707) 


>  <placement_batch>  (1707) 
CpKRS_FrAncestor_bulkdock_iter2

>  <name>  (1707) 
SLMNVNFRNYVGET-UHFFFAOYSA-N-P64

$$$$
KGRVHUPWRMBARZ-UHFFFAOYSA-N-P15
     RDKit          3D

 21 23  0  0  0  0  0  0  0  0999 V2000
    2.1271  -27.6552   21.4510 C   0  0  0  0  0  0  0  0  0  0  0  0
    2.1397  -26.3230   20.7029 C   0  0  0  0  0  0  0  0  0  0  0  0
    0.9510  -25.4773   21.1806 C   0  0  0  0  0  0  0  0  0  0  0  0
    3.4782  -25.5945   20.8864 C   0  0  0  0  0  0  0  0  0  0  0  0
    3.6444  -25.0512   19.5205 C   0  0  0  0  0  0  0  0  0  0  0  0
    4.5081  -24.0591   19.0981 C   0  0  0  0  0  0  0  0  0  0  0  0
    4.4952  -23.7184   17.7560 C   0  0  0  0  0  0  0  0  0  0  0  0
    3.6168  -24.3631   16.8781 C   0  0  0  0  0  0  0  0  0  0  0  0
    2.7021  -25.3378   17.3014 C   0  0  0  0  0  0  0  0  0  0  0  0
    1.7135  -25.9471   16.3430 C   0  0  0  0  0  0  0  0  0  0  0  0
    1.5186  -25.1379   15.1533 N   0  0  0  0  0  0  0  0  0  0  0  0
    1.7839  -25.4599   13.6665 C   0  0  0  0  0  0  0  0  0  0  0  0
    2.1279  -26.4520   13.1574 O   0  0  0  0  0  0  0  0  0  0  0  0
    1.5331  -24.2843   12.7656 C   0  0  0  0  0  0  0  0  0  0  0  0
    0.5608  -23.3116   12.9969 C   0  0  0  0  0  0  0  0  0  0  0  0
    0.4014  -22.2661   12.0841 C   0  0  0  0  0  0  0  0  0  0  0  0
    1.2164  -22.2205   10.9643 C   0  0  0  0  0  0  0  0  0  0  0  0
    2.1688  -23.1421   10.6938 N   0  0  0  0  0  0  0  0  0  0  0  0
    2.2802  -24.1645   11.5917 C   0  0  0  0  0  0  0  0  0  0  0  0
    2.7610  -25.6761   18.6443 C   0  0  0  0  0  0  0  0  0  0  0  0
    1.9582  -26.5956   19.2748 O   0  0  0  0  0  0  0  0  0  0  0  0
  1  2  1  0
  2  3  1  0
  2  4  1  0
  4  5  1  0
  5  6  2  0
  6  7  1  0
  7  8  2  0
  8  9  1  0
  9 10  1  0
 10 11  1  0
 11 12  1  0
 12 13  2  0
 12 14  1  0
 14 15  2  0
 15 16  1  0
 16 17  2  0
 17 18  1  0
 18 19  2  0
  9 20  2  0
 20 21  1  0
 21  2  1  0
 20  5  1  0
 19 14  1  0
M  END
>  <inchikey>  (1708) 
KGRVHUPWRMBARZ-UHFFFAOYSA-N

>  <tags>  (1708) 
fragmenstein_placed,CpKRS_FrAncestor_bulkdock_iter2

>  <ref_pdb>  (1708) 
x0654b

>  <energy_score>  (1708) 
-13.635749

>  <distance_score>  (1708) 
0.855581

>  <HIPPO Pose ID>  (1708) 
61741

>  <ref_mols>  (1708) 
x0426b

>  <smiles>  (1708) 
CC1(C)Cc2cccc(CNC(=O)c3cccnc3)c2O1

>  <HIPPO Compound ID>  (1708) 
86546

>  <alias>  (1708) 
KGRVHUPWRMBARZ-UHFFFAOYSA-N-P15

>  <subsites>  (1708) 


>  <placement_batch>  (1708) 
CpKRS_FrAncestor_bulkdock_iter2

>  <name>  (1708) 
KGRVHUPWRMBARZ-UHFFFAOYSA-N-P15

$$$$
MLFOMJNRLXUHQG-UHFFFAOYSA-N-P20
     RDKit          3D

 19 21  0  0  0  0  0  0  0  0999 V2000
    1.2327    3.5259   47.1253 C   0  0  0  0  0  0  0  0  0  0  0  0
    1.7849    4.8386   46.6307 C   0  0  0  0  0  0  0  0  0  0  0  0
    0.8826    5.9935   47.0492 C   0  0  0  0  0  0  0  0  0  0  0  0
    3.1774    4.6219   47.2028 C   0  0  0  0  0  0  0  0  0  0  0  0
    3.7368    5.5699   46.1696 C   0  0  0  0  0  0  0  0  0  0  0  0
    2.5440    5.1409   45.2895 C   0  0  2  0  0  0  0  0  0  0  0  0
    2.0971    6.3019   44.4403 C   0  0  0  0  0  0  0  0  0  0  0  0
    2.9268    6.4235   43.2863 N   0  0  0  0  0  0  0  0  0  0  0  0
    3.7283    5.3607   42.5148 C   0  0  0  0  0  0  0  0  0  0  0  0
    3.7778    4.2049   42.6523 O   0  0  0  0  0  0  0  0  0  0  0  0
    4.5194    6.0625   41.4528 C   0  0  0  0  0  0  0  0  0  0  0  0
    5.2626    5.3270   40.5313 C   0  0  0  0  0  0  0  0  0  0  0  0
    5.9446    6.0253   39.5427 C   0  0  0  0  0  0  0  0  0  0  0  0
    5.8422    7.4029   39.5317 C   0  0  0  0  0  0  0  0  0  0  0  0
    5.1123    8.0491   40.5208 C   0  0  0  0  0  0  0  0  0  0  0  0
    4.4530    7.4304   41.5033 N   0  0  0  0  0  0  0  0  0  0  0  0
    5.1683    9.5383   40.3462 C   0  0  0  0  0  0  0  0  0  0  0  0
    5.5879    9.6307   38.8744 C   0  0  0  0  0  0  0  0  0  0  0  0
    6.4499    8.3921   38.5933 C   0  0  0  0  0  0  0  0  0  0  0  0
  1  2  1  0
  2  3  1  0
  2  4  1  0
  4  5  1  0
  5  6  1  0
  6  7  1  1
  7  8  1  0
  8  9  1  0
  9 10  2  0
  9 11  1  0
 11 12  2  0
 12 13  1  0
 13 14  2  0
 14 15  1  0
 15 16  2  0
 15 17  1  0
 17 18  1  0
 18 19  1  0
  6  2  1  0
 16 11  1  0
 19 14  1  0
M  END
>  <inchikey>  (1709) 
MLFOMJNRLXUHQG-UHFFFAOYSA-N

>  <tags>  (1709) 
fragmenstein_placed,CpKRS_FrAncestor_bulkdock_iter2

>  <ref_pdb>  (1709) 
x0654b

>  <energy_score>  (1709) 
-20.373973

>  <distance_score>  (1709) 
0.912142

>  <HIPPO Pose ID>  (1709) 
61742

>  <ref_mols>  (1709) 
x0456a

>  <smiles>  (1709) 
CC1(C)CCC1CNC(=O)c1ccc2c(n1)CCC2

>  <HIPPO Compound ID>  (1709) 
59819

>  <alias>  (1709) 
MLFOMJNRLXUHQG-UHFFFAOYSA-N-P20

>  <subsites>  (1709) 


>  <placement_batch>  (1709) 
CpKRS_FrAncestor_bulkdock_iter2

>  <name>  (1709) 
MLFOMJNRLXUHQG-UHFFFAOYSA-N-P20

$$$$
KHMPXTXWVSGTTL-UHFFFAOYSA-N-P44
     RDKit          3D

 16 17  0  0  0  0  0  0  0  0999 V2000
  -11.3046  -15.8067   42.1817 C   0  0  0  0  0  0  0  0  0  0  0  0
  -11.6084  -16.3045   43.5952 C   0  0  2  0  0  0  0  0  0  0  0  0
  -12.3758  -17.6343   43.5641 C   0  0  0  0  0  0  0  0  0  0  0  0
  -13.8253  -17.3179   43.9181 C   0  0  0  0  0  0  0  0  0  0  0  0
  -13.9239  -15.8016   43.9466 C   0  0  0  0  0  0  0  0  0  0  0  0
  -12.5259  -15.3272   44.3501 C   0  0  1  0  0  0  0  0  0  0  0  0
  -12.3133  -15.3968   45.8717 C   0  0  0  0  0  0  0  0  0  0  0  0
  -11.2373  -14.5331   46.2970 N   0  0  0  0  0  0  0  0  0  0  0  0
  -11.1472  -12.9964   46.3441 C   0  0  0  0  0  0  0  0  0  0  0  0
  -11.8973  -12.1840   45.9755 O   0  0  0  0  0  0  0  0  0  0  0  0
   -9.8870  -12.5214   46.9712 C   0  0  0  0  0  0  0  0  0  0  0  0
   -9.2514  -11.3886   46.4569 C   0  0  0  0  0  0  0  0  0  0  0  0
   -8.1216  -10.8867   47.0953 C   0  0  0  0  0  0  0  0  0  0  0  0
   -7.6746  -11.5332   48.2362 C   0  0  0  0  0  0  0  0  0  0  0  0
   -8.2721  -12.6207   48.7716 N   0  0  0  0  0  0  0  0  0  0  0  0
   -9.3702  -13.0907   48.1269 C   0  0  0  0  0  0  0  0  0  0  0  0
  2  1  1  6
  2  3  1  0
  3  4  1  0
  4  5  1  0
  5  6  1  0
  6  7  1  1
  7  8  1  0
  8  9  1  0
  9 10  2  0
  9 11  1  0
 11 12  2  0
 12 13  1  0
 13 14  2  0
 14 15  1  0
 15 16  2  0
  6  2  1  0
 16 11  1  0
M  END
>  <inchikey>  (1710) 
KHMPXTXWVSGTTL-UHFFFAOYSA-N

>  <tags>  (1710) 
fragmenstein_placed,CpKRS_FrAncestor_bulkdock_iter2

>  <ref_pdb>  (1710) 
x0654b

>  <energy_score>  (1710) 
-16.982588

>  <distance_score>  (1710) 
0.439998

>  <HIPPO Pose ID>  (1710) 
61744

>  <ref_mols>  (1710) 
x0502b

>  <smiles>  (1710) 
CC1CCCC1CNC(=O)c1cccnc1

>  <HIPPO Compound ID>  (1710) 
109973

>  <alias>  (1710) 
KHMPXTXWVSGTTL-UHFFFAOYSA-N-P44

>  <subsites>  (1710) 


>  <placement_batch>  (1710) 
CpKRS_FrAncestor_bulkdock_iter2

>  <name>  (1710) 
KHMPXTXWVSGTTL-UHFFFAOYSA-N-P44

$$$$
DVNSTODTTHOSSQ-UHFFFAOYSA-N-P45
     RDKit          3D

 15 16  0  0  0  0  0  0  0  0999 V2000
    5.1113   -8.6034   24.7651 C   0  0  0  0  0  0  0  0  0  0  0  0
    4.2874   -9.2211   23.6452 C   0  0  0  0  0  0  0  0  0  0  0  0
    2.8081   -9.2875   24.0057 C   0  0  0  0  0  0  0  0  0  0  0  0
    4.5545   -8.5388   22.2850 C   0  0  0  0  0  0  0  0  0  0  0  0
    5.4386   -9.7141   21.8747 C   0  0  0  0  0  0  0  0  0  0  0  0
    4.9416  -10.5312   23.0904 C   0  0  2  0  0  0  0  0  0  0  0  0
    4.1289  -11.7490   22.6863 C   0  0  0  0  0  0  0  0  0  0  0  0
    3.5894  -12.3577   23.8646 N   0  0  0  0  0  0  0  0  0  0  0  0
    4.2594  -13.2481   24.9267 C   0  0  0  0  0  0  0  0  0  0  0  0
    5.3737  -13.5642   25.0528 O   0  0  0  0  0  0  0  0  0  0  0  0
    3.2582  -13.7380   25.8780 C   0  0  0  0  0  0  0  0  0  0  0  0
    3.3773  -14.7707   26.7901 C   0  0  0  0  0  0  0  0  0  0  0  0
    2.1806  -14.9113   27.5440 C   0  0  0  0  0  0  0  0  0  0  0  0
    1.1882  -14.0615   27.2800 N   0  0  0  0  0  0  0  0  0  0  0  0
    1.6992  -13.0587   26.0605 S   0  0  0  0  0  0  0  0  0  0  0  0
  1  2  1  0
  2  3  1  0
  2  4  1  0
  4  5  1  0
  5  6  1  0
  6  7  1  6
  7  8  1  0
  8  9  1  0
  9 10  2  0
  9 11  1  0
 11 12  2  0
 12 13  1  0
 13 14  2  0
 14 15  1  0
  6  2  1  0
 15 11  1  0
M  END
>  <inchikey>  (1711) 
DVNSTODTTHOSSQ-UHFFFAOYSA-N

>  <tags>  (1711) 
fragmenstein_placed,CpKRS_FrAncestor_bulkdock_iter2

>  <ref_pdb>  (1711) 
x0654b

>  <energy_score>  (1711) 
-13.298886

>  <distance_score>  (1711) 
0.664374

>  <HIPPO Pose ID>  (1711) 
61746

>  <ref_mols>  (1711) 
x0502a

>  <smiles>  (1711) 
CC1(C)CCC1CNC(=O)c1ccns1

>  <HIPPO Compound ID>  (1711) 
105434

>  <alias>  (1711) 
DVNSTODTTHOSSQ-UHFFFAOYSA-N-P45

>  <subsites>  (1711) 


>  <placement_batch>  (1711) 
CpKRS_FrAncestor_bulkdock_iter2

>  <name>  (1711) 
DVNSTODTTHOSSQ-UHFFFAOYSA-N-P45

$$$$
BFSMISJCZKRYEX-UHFFFAOYSA-N-P45
     RDKit          3D

 15 16  0  0  0  0  0  0  0  0999 V2000
    6.2126   -9.2346   23.2392 C   0  0  0  0  0  0  0  0  0  0  0  0
    4.7341   -9.2145   22.9194 C   0  0  0  0  0  0  0  0  0  0  0  0
    4.5177   -8.6140   21.5545 C   0  0  0  0  0  0  0  0  0  0  0  0
    3.9287   -8.5645   24.0695 C   0  0  0  0  0  0  0  0  0  0  0  0
    3.7078   -9.9743   24.6186 C   0  0  0  0  0  0  0  0  0  0  0  0
    3.8702  -10.5098   23.1797 C   0  0  2  0  0  0  0  0  0  0  0  0
    4.4795  -11.8895   23.0092 C   0  0  0  0  0  0  0  0  0  0  0  0
    3.8932  -12.7315   24.0147 N   0  0  0  0  0  0  0  0  0  0  0  0
    4.5531  -13.5999   25.1007 C   0  0  0  0  0  0  0  0  0  0  0  0
    5.6769  -13.8305   25.3034 O   0  0  0  0  0  0  0  0  0  0  0  0
    3.5270  -14.0806   26.0084 C   0  0  0  0  0  0  0  0  0  0  0  0
    3.5566  -15.0165   27.0196 C   0  0  0  0  0  0  0  0  0  0  0  0
    2.3620  -15.0291   27.6987 N   0  0  0  0  0  0  0  0  0  0  0  0
    1.6580  -14.1219   27.0676 C   0  0  0  0  0  0  0  0  0  0  0  0
    2.2710  -13.5113   26.0193 O   0  0  0  0  0  0  0  0  0  0  0  0
  1  2  1  0
  2  3  1  0
  2  4  1  0
  4  5  1  0
  5  6  1  0
  6  7  1  1
  7  8  1  0
  8  9  1  0
  9 10  2  0
  9 11  1  0
 11 12  2  0
 12 13  1  0
 13 14  2  0
 14 15  1  0
  6  2  1  0
 15 11  1  0
M  END
>  <inchikey>  (1712) 
BFSMISJCZKRYEX-UHFFFAOYSA-N

>  <tags>  (1712) 
fragmenstein_placed,CpKRS_FrAncestor_bulkdock_iter2

>  <ref_pdb>  (1712) 
x0654b

>  <energy_score>  (1712) 
-14.070338

>  <distance_score>  (1712) 
0.730393

>  <HIPPO Pose ID>  (1712) 
61749

>  <ref_mols>  (1712) 
x0502a

>  <smiles>  (1712) 
CC1(C)CCC1CNC(=O)c1cnco1

>  <HIPPO Compound ID>  (1712) 
453272

>  <alias>  (1712) 
BFSMISJCZKRYEX-UHFFFAOYSA-N-P45

>  <subsites>  (1712) 


>  <placement_batch>  (1712) 
CpKRS_FrAncestor_bulkdock_iter2

>  <name>  (1712) 
BFSMISJCZKRYEX-UHFFFAOYSA-N-P45

$$$$
KJASAFQGECADBU-UHFFFAOYSA-N-P44
     RDKit          3D

 15 16  0  0  0  0  0  0  0  0999 V2000
  -14.5883  -17.1877   44.9267 C   0  0  0  0  0  0  0  0  0  0  0  0
  -13.4889  -16.5940   44.0508 C   0  0  0  0  0  0  0  0  0  0  0  0
  -14.0905  -15.8199   42.8765 C   0  0  0  0  0  0  0  0  0  0  0  0
  -12.4164  -17.6293   43.6288 C   0  0  0  0  0  0  0  0  0  0  0  0
  -11.3392  -16.5623   43.8671 C   0  0  0  0  0  0  0  0  0  0  0  0
  -12.3383  -15.7809   44.7586 C   0  0  2  0  0  0  0  0  0  0  0  0
  -12.1668  -15.9520   46.2650 C   0  0  0  0  0  0  0  0  0  0  0  0
  -11.1829  -15.0038   46.7211 N   0  0  0  0  0  0  0  0  0  0  0  0
  -11.2420  -13.4638   46.8138 C   0  0  0  0  0  0  0  0  0  0  0  0
  -12.1229  -12.7279   46.6081 O   0  0  0  0  0  0  0  0  0  0  0  0
   -9.9815  -12.9463   47.3361 C   0  0  0  0  0  0  0  0  0  0  0  0
   -9.1750  -13.4125   48.3571 C   0  0  0  0  0  0  0  0  0  0  0  0
   -8.0805  -12.6259   48.6731 N   0  0  0  0  0  0  0  0  0  0  0  0
   -8.0556  -11.5878   47.8682 C   0  0  0  0  0  0  0  0  0  0  0  0
   -9.3308  -11.4749   46.7301 S   0  0  0  0  0  0  0  0  0  0  0  0
  1  2  1  0
  2  3  1  0
  2  4  1  0
  4  5  1  0
  5  6  1  0
  6  7  1  1
  7  8  1  0
  8  9  1  0
  9 10  2  0
  9 11  1  0
 11 12  2  0
 12 13  1  0
 13 14  2  0
 14 15  1  0
  6  2  1  0
 15 11  1  0
M  END
>  <inchikey>  (1713) 
KJASAFQGECADBU-UHFFFAOYSA-N

>  <tags>  (1713) 
fragmenstein_placed,CpKRS_FrAncestor_bulkdock_iter2

>  <ref_pdb>  (1713) 
x0654b

>  <energy_score>  (1713) 
-63.925732

>  <distance_score>  (1713) 
0.547798

>  <HIPPO Pose ID>  (1713) 
61753

>  <ref_mols>  (1713) 
x0502b

>  <smiles>  (1713) 
CC1(C)CCC1CNC(=O)c1cncs1

>  <HIPPO Compound ID>  (1713) 
105433

>  <alias>  (1713) 
KJASAFQGECADBU-UHFFFAOYSA-N-P44

>  <subsites>  (1713) 


>  <placement_batch>  (1713) 
CpKRS_FrAncestor_bulkdock_iter2

>  <name>  (1713) 
KJASAFQGECADBU-UHFFFAOYSA-N-P44

$$$$
ZCOZVLIQRNENAR-UHFFFAOYSA-N-P12
     RDKit          3D

 17 19  0  0  0  0  0  0  0  0999 V2000
    3.7599   -8.9702   24.4767 C   0  0  0  0  0  0  0  0  0  0  0  0
    5.0673   -9.5456   23.9431 C   0  0  2  0  0  0  0  0  0  0  0  0
    5.5398   -8.7644   22.7198 C   0  0  0  0  0  0  0  0  0  0  0  0
    4.7503   -9.3598   21.5578 C   0  0  0  0  0  0  0  0  0  0  0  0
    4.2839  -10.7477   22.0056 C   0  0  0  0  0  0  0  0  0  0  0  0
    4.9350  -10.9562   23.3592 C   0  0  2  0  0  0  0  0  0  0  0  0
    4.2755  -11.9098   24.1949 N   0  0  0  0  0  0  0  0  0  0  0  0
    4.7258  -13.2966   24.6724 C   0  0  0  0  0  0  0  0  0  0  0  0
    5.7370  -13.8537   24.5255 O   0  0  0  0  0  0  0  0  0  0  0  0
    3.6667  -13.8800   25.5135 C   0  0  0  0  0  0  0  0  0  0  0  0
    3.8893  -14.8940   26.5015 C   0  0  0  0  0  0  0  0  0  0  0  0
    2.7397  -14.8873   27.2272 C   0  0  0  0  0  0  0  0  0  0  0  0
    1.8742  -14.0810   26.5665 N   0  0  0  0  0  0  0  0  0  0  0  0
    2.3969  -13.3934   25.5532 N   0  0  0  0  0  0  0  0  0  0  0  0
    0.6104  -13.8900   27.2518 C   0  0  0  0  0  0  0  0  0  0  0  0
    0.9684  -14.4057   28.6652 C   0  0  0  0  0  0  0  0  0  0  0  0
    2.1799  -15.3593   28.4955 C   0  0  0  0  0  0  0  0  0  0  0  0
  2  1  1  6
  2  3  1  0
  3  4  1  0
  4  5  1  0
  5  6  1  0
  6  7  1  1
  7  8  1  0
  8  9  2  0
  8 10  1  0
 10 11  1  0
 11 12  2  0
 12 13  1  0
 13 14  1  0
 13 15  1  0
 15 16  1  0
 16 17  1  0
  6  2  1  0
 14 10  2  0
 17 12  1  0
M  END
>  <inchikey>  (1714) 
ZCOZVLIQRNENAR-UHFFFAOYSA-N

>  <tags>  (1714) 
fragmenstein_placed,CpKRS_FrAncestor_bulkdock_iter2

>  <ref_pdb>  (1714) 
x0654b

>  <energy_score>  (1714) 
-20.385788

>  <distance_score>  (1714) 
0.585231

>  <HIPPO Pose ID>  (1714) 
61756

>  <ref_mols>  (1714) 
x0421b

>  <smiles>  (1714) 
CC1CCCC1NC(=O)c1cc2n(n1)CCC2

>  <HIPPO Compound ID>  (1714) 
30811

>  <alias>  (1714) 
ZCOZVLIQRNENAR-UHFFFAOYSA-N-P12

>  <subsites>  (1714) 


>  <placement_batch>  (1714) 
CpKRS_FrAncestor_bulkdock_iter2

>  <name>  (1714) 
ZCOZVLIQRNENAR-UHFFFAOYSA-N-P12

$$$$
WSTSBHFCYQMXMK-UHFFFAOYSA-N-P11
     RDKit          3D

 17 19  0  0  0  0  0  0  0  0999 V2000
    3.9723  -11.7841   22.0028 C   0  0  0  0  0  0  0  0  0  0  0  0
    5.1935  -11.0669   22.5440 C   0  0  1  0  0  0  0  0  0  0  0  0
    5.3614   -9.6786   21.9036 C   0  0  0  0  0  0  0  0  0  0  0  0
    5.3755   -8.6843   23.0583 C   0  0  0  0  0  0  0  0  0  0  0  0
    4.6010   -9.3843   24.1635 C   0  0  0  0  0  0  0  0  0  0  0  0
    5.1056  -10.8158   24.0511 C   0  0  1  0  0  0  0  0  0  0  0  0
    4.3042  -11.7846   24.7343 N   0  0  0  0  0  0  0  0  0  0  0  0
    4.6486  -13.2041   25.2196 C   0  0  0  0  0  0  0  0  0  0  0  0
    5.6610  -13.7810   25.2089 O   0  0  0  0  0  0  0  0  0  0  0  0
    3.4323  -13.7880   25.8292 C   0  0  0  0  0  0  0  0  0  0  0  0
    3.3404  -14.9940   26.5751 C   0  0  0  0  0  0  0  0  0  0  0  0
    2.0223  -15.0915   26.9526 C   0  0  0  0  0  0  0  0  0  0  0  0
    1.4190  -13.9991   26.4209 N   0  0  0  0  0  0  0  0  0  0  0  0
   -0.0151  -13.6852   26.5994 C   0  0  0  0  0  0  0  0  0  0  0  0
   -1.1030  -14.4578   25.8892 C   0  0  0  0  0  0  0  0  0  0  0  0
   -0.8260  -13.0379   25.4985 C   0  0  0  0  0  0  0  0  0  0  0  0
    2.2335  -13.1622   25.7695 N   0  0  0  0  0  0  0  0  0  0  0  0
  2  1  1  6
  2  3  1  0
  3  4  1  0
  4  5  1  0
  5  6  1  0
  6  7  1  1
  7  8  1  0
  8  9  2  0
  8 10  1  0
 10 11  1  0
 11 12  2  0
 12 13  1  0
 13 14  1  0
 14 15  1  0
 15 16  1  0
 13 17  1  0
  6  2  1  0
 17 10  2  0
 16 14  1  0
M  END
>  <inchikey>  (1715) 
WSTSBHFCYQMXMK-UHFFFAOYSA-N

>  <tags>  (1715) 
fragmenstein_placed,CpKRS_FrAncestor_bulkdock_iter2

>  <ref_pdb>  (1715) 
x0654b

>  <energy_score>  (1715) 
-23.476059

>  <distance_score>  (1715) 
0.592479

>  <HIPPO Pose ID>  (1715) 
61767

>  <ref_mols>  (1715) 
x0421a

>  <smiles>  (1715) 
CC1CCCC1NC(=O)c1ccn(C2CC2)n1

>  <HIPPO Compound ID>  (1715) 
30814

>  <alias>  (1715) 
WSTSBHFCYQMXMK-UHFFFAOYSA-N-P11

>  <subsites>  (1715) 


>  <placement_batch>  (1715) 
CpKRS_FrAncestor_bulkdock_iter2

>  <name>  (1715) 
WSTSBHFCYQMXMK-UHFFFAOYSA-N-P11

$$$$
OQNPPSNDFJBGBB-UHFFFAOYSA-N-P12
     RDKit          3D

 17 19  0  0  0  0  0  0  0  0999 V2000
    3.6683   -9.0666   24.4680 C   0  0  0  0  0  0  0  0  0  0  0  0
    5.0156   -9.5791   23.9725 C   0  0  2  0  0  0  0  0  0  0  0  0
    5.5360   -8.7115   22.8297 C   0  0  0  0  0  0  0  0  0  0  0  0
    4.8342   -9.2511   21.5875 C   0  0  0  0  0  0  0  0  0  0  0  0
    4.3805  -10.6730   21.9216 C   0  0  0  0  0  0  0  0  0  0  0  0
    4.9477  -10.9543   23.2991 C   0  0  2  0  0  0  0  0  0  0  0  0
    4.2440  -11.9675   24.0239 N   0  0  0  0  0  0  0  0  0  0  0  0
    4.7541  -13.2462   24.6969 C   0  0  0  0  0  0  0  0  0  0  0  0
    5.8156  -13.7222   24.7055 O   0  0  0  0  0  0  0  0  0  0  0  0
    3.6648  -13.8154   25.4949 C   0  0  0  0  0  0  0  0  0  0  0  0
    3.8347  -14.7756   26.4839 C   0  0  0  0  0  0  0  0  0  0  0  0
    2.6479  -14.7993   27.0990 N   0  0  0  0  0  0  0  0  0  0  0  0
    1.7764  -13.9645   26.4705 C   0  0  0  0  0  0  0  0  0  0  0  0
    2.3425  -13.3427   25.4675 N   0  0  0  0  0  0  0  0  0  0  0  0
    0.4997  -13.8914   27.2059 C   0  0  0  0  0  0  0  0  0  0  0  0
    0.9439  -14.4008   28.6077 C   0  0  0  0  0  0  0  0  0  0  0  0
    2.1742  -15.2918   28.3694 C   0  0  0  0  0  0  0  0  0  0  0  0
  2  1  1  6
  2  3  1  0
  3  4  1  0
  4  5  1  0
  5  6  1  0
  6  7  1  1
  7  8  1  0
  8  9  2  0
  8 10  1  0
 10 11  2  0
 11 12  1  0
 12 13  1  0
 13 14  2  0
 13 15  1  0
 15 16  1  0
 16 17  1  0
  6  2  1  0
 14 10  1  0
 17 12  1  0
M  END
>  <inchikey>  (1716) 
OQNPPSNDFJBGBB-UHFFFAOYSA-N

>  <tags>  (1716) 
fragmenstein_placed,CpKRS_FrAncestor_bulkdock_iter2

>  <ref_pdb>  (1716) 
x0654b

>  <energy_score>  (1716) 
-18.487803

>  <distance_score>  (1716) 
0.556419

>  <HIPPO Pose ID>  (1716) 
61772

>  <ref_mols>  (1716) 
x0421b

>  <smiles>  (1716) 
CC1CCCC1NC(=O)c1cn2c(n1)CCC2

>  <HIPPO Compound ID>  (1716) 
30815

>  <alias>  (1716) 
OQNPPSNDFJBGBB-UHFFFAOYSA-N-P12

>  <subsites>  (1716) 


>  <placement_batch>  (1716) 
CpKRS_FrAncestor_bulkdock_iter2

>  <name>  (1716) 
OQNPPSNDFJBGBB-UHFFFAOYSA-N-P12

$$$$
PDXRFMJMXYETQZ-UHFFFAOYSA-N-P13
     RDKit          3D

 16 17  0  0  0  0  0  0  0  0999 V2000
    4.7914  -11.4205   21.6947 C   0  0  0  0  0  0  0  0  0  0  0  0
    5.4635  -10.3437   22.5058 C   0  0  1  0  0  0  0  0  0  0  0  0
    5.0857   -8.9232   22.0928 C   0  0  0  0  0  0  0  0  0  0  0  0
    5.4539   -8.1213   23.3296 C   0  0  0  0  0  0  0  0  0  0  0  0
    4.8774   -8.9769   24.4462 C   0  0  0  0  0  0  0  0  0  0  0  0
    5.2479  -10.3991   24.0283 C   0  0  1  0  0  0  0  0  0  0  0  0
    4.3239  -11.4007   24.4841 N   0  0  0  0  0  0  0  0  0  0  0  0
    4.5149  -12.9149   24.6994 C   0  0  0  0  0  0  0  0  0  0  0  0
    5.4269  -13.6001   24.4684 O   0  0  0  0  0  0  0  0  0  0  0  0
    3.2888  -13.4867   25.3853 C   0  0  0  0  0  0  0  0  0  0  0  0
    2.1488  -12.7370   25.2201 N   0  0  0  0  0  0  0  0  0  0  0  0
    1.0196  -13.1879   25.8066 C   0  0  0  0  0  0  0  0  0  0  0  0
    0.9657  -14.3300   26.5816 C   0  0  0  0  0  0  0  0  0  0  0  0
    2.1325  -15.0667   26.7573 C   0  0  0  0  0  0  0  0  0  0  0  0
    3.3197  -14.6528   26.1493 C   0  0  0  0  0  0  0  0  0  0  0  0
    4.8509  -15.7091   26.4819 Br  0  0  0  0  0  0  0  0  0  0  0  0
  2  1  1  6
  2  3  1  0
  3  4  1  0
  4  5  1  0
  5  6  1  0
  6  7  1  6
  7  8  1  0
  8  9  2  0
  8 10  1  0
 10 11  2  0
 11 12  1  0
 12 13  2  0
 13 14  1  0
 14 15  2  0
 15 16  1  0
  6  2  1  0
 15 10  1  0
M  END
>  <inchikey>  (1717) 
PDXRFMJMXYETQZ-UHFFFAOYSA-N

>  <tags>  (1717) 
fragmenstein_placed,CpKRS_FrAncestor_bulkdock_iter2

>  <ref_pdb>  (1717) 
x0654b

>  <energy_score>  (1717) 
-4.875274

>  <distance_score>  (1717) 
0.593238

>  <HIPPO Pose ID>  (1717) 
61785

>  <ref_mols>  (1717) 
x0421c

>  <smiles>  (1717) 
CC1CCCC1NC(=O)c1ncccc1Br

>  <HIPPO Compound ID>  (1717) 
30818

>  <alias>  (1717) 
PDXRFMJMXYETQZ-UHFFFAOYSA-N-P13

>  <subsites>  (1717) 


>  <placement_batch>  (1717) 
CpKRS_FrAncestor_bulkdock_iter2

>  <name>  (1717) 
PDXRFMJMXYETQZ-UHFFFAOYSA-N-P13

$$$$
OCPDWRFGIPYJNA-UHFFFAOYSA-N-P12
     RDKit          3D

 16 17  0  0  0  0  0  0  0  0999 V2000
    4.8461   -8.4011   24.9896 C   0  0  0  0  0  0  0  0  0  0  0  0
    5.1657   -9.4656   23.9546 C   0  0  2  0  0  0  0  0  0  0  0  0
    5.6785   -8.8126   22.6636 C   0  0  0  0  0  0  0  0  0  0  0  0
    5.1070   -9.6285   21.5116 C   0  0  0  0  0  0  0  0  0  0  0  0
    4.4554  -10.8386   22.1500 C   0  0  0  0  0  0  0  0  0  0  0  0
    3.9636  -10.2872   23.4779 C   0  0  1  0  0  0  0  0  0  0  0  0
    3.4821  -11.3126   24.3532 N   0  0  0  0  0  0  0  0  0  0  0  0
    4.1093  -12.6675   24.7528 C   0  0  0  0  0  0  0  0  0  0  0  0
    5.1489  -13.1240   24.4921 O   0  0  0  0  0  0  0  0  0  0  0  0
    3.0686  -13.4084   25.5822 C   0  0  0  0  0  0  0  0  0  0  0  0
    1.8232  -12.8255   25.4937 N   0  0  0  0  0  0  0  0  0  0  0  0
    0.8550  -13.2811   26.3107 C   0  0  0  0  0  0  0  0  0  0  0  0
    1.0506  -14.3195   27.1932 C   0  0  0  0  0  0  0  0  0  0  0  0
    2.2932  -14.9543   27.2153 C   0  0  0  0  0  0  0  0  0  0  0  0
    3.3342  -14.5018   26.3984 C   0  0  0  0  0  0  0  0  0  0  0  0
    4.8404  -15.3279   26.5112 Cl  0  0  0  0  0  0  0  0  0  0  0  0
  2  1  1  1
  2  3  1  0
  3  4  1  0
  4  5  1  0
  5  6  1  0
  6  7  1  1
  7  8  1  0
  8  9  2  0
  8 10  1  0
 10 11  2  0
 11 12  1  0
 12 13  2  0
 13 14  1  0
 14 15  2  0
 15 16  1  0
  6  2  1  0
 15 10  1  0
M  END
>  <inchikey>  (1718) 
OCPDWRFGIPYJNA-UHFFFAOYSA-N

>  <tags>  (1718) 
fragmenstein_placed,CpKRS_FrAncestor_bulkdock_iter2

>  <ref_pdb>  (1718) 
x0654b

>  <energy_score>  (1718) 
-5.330598

>  <distance_score>  (1718) 
0.601018

>  <HIPPO Pose ID>  (1718) 
61788

>  <ref_mols>  (1718) 
x0421b

>  <smiles>  (1718) 
CC1CCCC1NC(=O)c1ncccc1Cl

>  <HIPPO Compound ID>  (1718) 
30819

>  <alias>  (1718) 
OCPDWRFGIPYJNA-UHFFFAOYSA-N-P12

>  <subsites>  (1718) 


>  <placement_batch>  (1718) 
CpKRS_FrAncestor_bulkdock_iter2

>  <name>  (1718) 
OCPDWRFGIPYJNA-UHFFFAOYSA-N-P12

$$$$
SNSYFOGXMWKAPW-UHFFFAOYSA-N-P12
     RDKit          3D

 17 19  0  0  0  0  0  0  0  0999 V2000
    5.1349   -8.4173   25.0628 C   0  0  0  0  0  0  0  0  0  0  0  0
    4.6561   -9.0427   23.7649 C   0  0  1  0  0  0  0  0  0  0  0  0
    5.3643   -8.4071   22.5684 C   0  0  0  0  0  0  0  0  0  0  0  0
    5.3382   -9.4564   21.4671 C   0  0  0  0  0  0  0  0  0  0  0  0
    4.8102  -10.7348   22.0935 C   0  0  0  0  0  0  0  0  0  0  0  0
    5.0034  -10.5208   23.5878 C   0  0  2  0  0  0  0  0  0  0  0  0
    4.2298  -11.4592   24.3379 N   0  0  0  0  0  0  0  0  0  0  0  0
    4.4453  -12.9643   24.5825 C   0  0  0  0  0  0  0  0  0  0  0  0
    5.3275  -13.6600   24.2755 O   0  0  0  0  0  0  0  0  0  0  0  0
    3.3069  -13.4798   25.3676 C   0  0  0  0  0  0  0  0  0  0  0  0
    2.1251  -12.8303   25.3096 N   0  0  0  0  0  0  0  0  0  0  0  0
    1.2739  -13.4958   26.1683 O   0  0  0  0  0  0  0  0  0  0  0  0
    1.9286  -14.5322   26.7355 C   0  0  0  0  0  0  0  0  0  0  0  0
    3.2091  -14.5854   26.2525 C   0  0  0  0  0  0  0  0  0  0  0  0
    4.2241  -15.6529   26.7197 C   0  0  0  0  0  0  0  0  0  0  0  0
    5.7081  -15.4646   26.6256 C   0  0  0  0  0  0  0  0  0  0  0  0
    5.0160  -16.4302   25.7045 C   0  0  0  0  0  0  0  0  0  0  0  0
  2  1  1  1
  2  3  1  0
  3  4  1  0
  4  5  1  0
  5  6  1  0
  6  7  1  1
  7  8  1  0
  8  9  2  0
  8 10  1  0
 10 11  2  0
 11 12  1  0
 12 13  1  0
 13 14  2  0
 14 15  1  0
 15 16  1  0
 16 17  1  0
  6  2  1  0
 14 10  1  0
 17 15  1  0
M  END
>  <inchikey>  (1719) 
SNSYFOGXMWKAPW-UHFFFAOYSA-N

>  <tags>  (1719) 
fragmenstein_placed,CpKRS_FrAncestor_bulkdock_iter2

>  <ref_pdb>  (1719) 
x0654b

>  <energy_score>  (1719) 
-8.34486

>  <distance_score>  (1719) 
0.384231

>  <HIPPO Pose ID>  (1719) 
61808

>  <ref_mols>  (1719) 
x0421b

>  <smiles>  (1719) 
CC1CCCC1NC(=O)c1nocc1C1CC1

>  <HIPPO Compound ID>  (1719) 
30824

>  <alias>  (1719) 
SNSYFOGXMWKAPW-UHFFFAOYSA-N-P12

>  <subsites>  (1719) 


>  <placement_batch>  (1719) 
CpKRS_FrAncestor_bulkdock_iter2

>  <name>  (1719) 
SNSYFOGXMWKAPW-UHFFFAOYSA-N-P12

$$$$
DJKIMXNINUKQMJ-UHFFFAOYSA-N-P46
     RDKit          3D

 14 15  0  0  0  0  0  0  0  0999 V2000
    4.0791   -8.8479   24.7232 C   0  0  0  0  0  0  0  0  0  0  0  0
    3.7097   -9.2372   23.3023 C   0  0  1  0  0  0  0  0  0  0  0  0
    4.6857   -8.5953   22.3040 C   0  0  0  0  0  0  0  0  0  0  0  0
    5.4344   -9.7429   21.6496 C   0  0  0  0  0  0  0  0  0  0  0  0
    5.2345  -10.9311   22.5730 C   0  0  0  0  0  0  0  0  0  0  0  0
    3.7981  -10.7521   23.0301 C   0  0  1  0  0  0  0  0  0  0  0  0
    3.3896  -11.6031   24.1149 N   0  0  0  0  0  0  0  0  0  0  0  0
    4.0747  -12.8455   24.7292 C   0  0  0  0  0  0  0  0  0  0  0  0
    5.1130  -13.3256   24.5018 O   0  0  0  0  0  0  0  0  0  0  0  0
    3.1789  -13.4189   25.7209 C   0  0  0  0  0  0  0  0  0  0  0  0
    3.2514  -14.5470   26.5113 C   0  0  0  0  0  0  0  0  0  0  0  0
    2.1562  -14.6196   27.3446 N   0  0  0  0  0  0  0  0  0  0  0  0
    1.4695  -13.5498   27.0259 C   0  0  0  0  0  0  0  0  0  0  0  0
    1.9933  -12.7874   26.0299 O   0  0  0  0  0  0  0  0  0  0  0  0
  2  1  1  1
  2  3  1  0
  3  4  1  0
  4  5  1  0
  5  6  1  0
  6  7  1  1
  7  8  1  0
  8  9  2  0
  8 10  1  0
 10 11  2  0
 11 12  1  0
 12 13  2  0
 13 14  1  0
  6  2  1  0
 14 10  1  0
M  END
>  <inchikey>  (1720) 
DJKIMXNINUKQMJ-UHFFFAOYSA-N

>  <tags>  (1720) 
fragmenstein_placed,CpKRS_FrAncestor_bulkdock_iter2

>  <ref_pdb>  (1720) 
x0654b

>  <energy_score>  (1720) 
-11.908409

>  <distance_score>  (1720) 
0.818833

>  <HIPPO Pose ID>  (1720) 
61813

>  <ref_mols>  (1720) 
x0502c

>  <smiles>  (1720) 
CC1CCCC1NC(=O)c1cnco1

>  <HIPPO Compound ID>  (1720) 
30825

>  <alias>  (1720) 
DJKIMXNINUKQMJ-UHFFFAOYSA-N-P46

>  <subsites>  (1720) 


>  <placement_batch>  (1720) 
CpKRS_FrAncestor_bulkdock_iter2

>  <name>  (1720) 
DJKIMXNINUKQMJ-UHFFFAOYSA-N-P46

$$$$
WOOBDVAGPQUIPX-UHFFFAOYSA-N-P46
     RDKit          3D

 14 15  0  0  0  0  0  0  0  0999 V2000
    3.5565   -8.8576   24.3063 C   0  0  0  0  0  0  0  0  0  0  0  0
    4.9505   -9.3889   24.0058 C   0  0  2  0  0  0  0  0  0  0  0  0
    5.5359   -8.7252   22.7618 C   0  0  0  0  0  0  0  0  0  0  0  0
    4.9798   -9.5250   21.5906 C   0  0  0  0  0  0  0  0  0  0  0  0
    4.5584  -10.8849   22.1468 C   0  0  0  0  0  0  0  0  0  0  0  0
    4.9782  -10.8698   23.6074 C   0  0  2  0  0  0  0  0  0  0  0  0
    4.1978  -11.7421   24.4345 N   0  0  0  0  0  0  0  0  0  0  0  0
    4.5406  -13.1158   25.0441 C   0  0  0  0  0  0  0  0  0  0  0  0
    5.5372  -13.7186   25.0332 O   0  0  0  0  0  0  0  0  0  0  0  0
    3.3978  -13.6167   25.8141 C   0  0  0  0  0  0  0  0  0  0  0  0
    3.3728  -14.7074   26.6672 C   0  0  0  0  0  0  0  0  0  0  0  0
    2.2286  -14.8509   27.4374 N   0  0  0  0  0  0  0  0  0  0  0  0
    1.3883  -13.8972   27.1177 C   0  0  0  0  0  0  0  0  0  0  0  0
    1.8570  -12.8535   25.8498 S   0  0  0  0  0  0  0  0  0  0  0  0
  2  1  1  6
  2  3  1  0
  3  4  1  0
  4  5  1  0
  5  6  1  0
  6  7  1  1
  7  8  1  0
  8  9  2  0
  8 10  1  0
 10 11  2  0
 11 12  1  0
 12 13  2  0
 13 14  1  0
  6  2  1  0
 14 10  1  0
M  END
>  <inchikey>  (1721) 
WOOBDVAGPQUIPX-UHFFFAOYSA-N

>  <tags>  (1721) 
fragmenstein_placed,CpKRS_FrAncestor_bulkdock_iter2

>  <ref_pdb>  (1721) 
x0654b

>  <energy_score>  (1721) 
-38.82377

>  <distance_score>  (1721) 
0.758616

>  <HIPPO Pose ID>  (1721) 
61816

>  <ref_mols>  (1721) 
x0502c

>  <smiles>  (1721) 
CC1CCCC1NC(=O)c1cncs1

>  <HIPPO Compound ID>  (1721) 
30826

>  <alias>  (1721) 
WOOBDVAGPQUIPX-UHFFFAOYSA-N-P46

>  <subsites>  (1721) 


>  <placement_batch>  (1721) 
CpKRS_FrAncestor_bulkdock_iter2

>  <name>  (1721) 
WOOBDVAGPQUIPX-UHFFFAOYSA-N-P46

$$$$
LJZSXDPOFWJEKX-UHFFFAOYSA-N-P14
     RDKit          3D

 17 19  0  0  0  0  0  0  0  0999 V2000
    3.7954  -11.8591   21.9873 C   0  0  0  0  0  0  0  0  0  0  0  0
    4.9725  -11.0674   22.4942 C   0  0  1  0  0  0  0  0  0  0  0  0
    5.1453   -9.7221   21.7699 C   0  0  0  0  0  0  0  0  0  0  0  0
    5.3550   -8.6892   22.8662 C   0  0  0  0  0  0  0  0  0  0  0  0
    4.5439   -9.2441   24.0198 C   0  0  0  0  0  0  0  0  0  0  0  0
    4.8611  -10.7361   23.9779 C   0  0  1  0  0  0  0  0  0  0  0  0
    3.8369  -11.4624   24.6566 O   0  0  0  0  0  0  0  0  0  0  0  0
    4.1593  -12.7472   25.0301 C   0  0  0  0  0  0  0  0  0  0  0  0
    5.2307  -13.2859   24.7625 O   0  0  0  0  0  0  0  0  0  0  0  0
    3.1263  -13.3647   25.8729 C   0  0  0  0  0  0  0  0  0  0  0  0
    1.8879  -12.8249   26.0728 N   0  0  0  0  0  0  0  0  0  0  0  0
    1.3701  -13.5377   27.0952 N   0  0  0  0  0  0  0  0  0  0  0  0
    2.1895  -14.5188   27.4991 C   0  0  0  0  0  0  0  0  0  0  0  0
    3.2973  -14.4821   26.7131 C   0  0  0  0  0  0  0  0  0  0  0  0
    4.3062  -15.4620   27.1462 C   0  0  0  0  0  0  0  0  0  0  0  0
    3.5218  -16.2675   28.2443 C   0  0  0  0  0  0  0  0  0  0  0  0
    2.2485  -15.4441   28.6290 C   0  0  0  0  0  0  0  0  0  0  0  0
  2  1  1  6
  2  3  1  0
  3  4  1  0
  4  5  1  0
  5  6  1  0
  6  7  1  6
  7  8  1  0
  8  9  2  0
  8 10  1  0
 10 11  2  0
 11 12  1  0
 12 13  1  0
 13 14  2  0
 14 15  1  0
 15 16  1  0
 16 17  1  0
  6  2  1  0
 14 10  1  0
 17 13  1  0
M  END
>  <inchikey>  (1722) 
LJZSXDPOFWJEKX-UHFFFAOYSA-N

>  <tags>  (1722) 
fragmenstein_placed,CpKRS_FrAncestor_bulkdock_iter2

>  <ref_pdb>  (1722) 
x0654b

>  <energy_score>  (1722) 
-26.327327

>  <distance_score>  (1722) 
0.522935

>  <HIPPO Pose ID>  (1722) 
61820

>  <ref_mols>  (1722) 
x0421d

>  <smiles>  (1722) 
CC1CCCC1OC(=O)c1n[nH]c2c1CCC2

>  <HIPPO Compound ID>  (1722) 
453273

>  <alias>  (1722) 
LJZSXDPOFWJEKX-UHFFFAOYSA-N-P14

>  <subsites>  (1722) 


>  <placement_batch>  (1722) 
CpKRS_FrAncestor_bulkdock_iter2

>  <name>  (1722) 
LJZSXDPOFWJEKX-UHFFFAOYSA-N-P14

$$$$
ZEMHRXVRCMFXEP-UHFFFAOYSA-N-P60
     RDKit          3D

 17 19  0  0  0  0  0  0  0  0999 V2000
   -1.3448  -28.4067   23.5750 C   0  0  0  0  0  0  0  0  0  0  0  0
   -1.6019  -27.0949   24.2640 C   0  0  0  0  0  0  0  0  0  0  0  0
   -1.0590  -25.9230   23.7198 C   0  0  0  0  0  0  0  0  0  0  0  0
   -1.2962  -24.6891   24.3176 C   0  0  0  0  0  0  0  0  0  0  0  0
   -2.0826  -24.6088   25.4632 C   0  0  0  0  0  0  0  0  0  0  0  0
   -2.6399  -25.7645   26.0285 C   0  0  0  0  0  0  0  0  0  0  0  0
   -2.3652  -27.0171   25.4492 C   0  0  0  0  0  0  0  0  0  0  0  0
   -2.9482  -28.2508   26.0938 C   0  0  0  0  0  0  0  0  0  0  0  0
   -3.3563  -28.0196   27.5566 C   0  0  0  0  0  0  0  0  0  0  0  0
   -4.2427  -26.8482   27.6685 N   0  0  0  0  0  0  0  0  0  0  0  0
   -4.8202  -26.6856   29.0275 C   0  0  1  0  0  0  0  0  0  0  0  0
   -5.8257  -25.5450   29.0978 C   0  0  0  0  0  0  0  0  0  0  0  0
   -6.6326  -25.8983   30.3169 C   0  0  0  0  0  0  0  0  0  0  0  0
   -6.7294  -27.3194   30.2900 O   0  0  0  0  0  0  0  0  0  0  0  0
   -5.7029  -27.8301   29.5347 C   0  0  0  0  0  0  0  0  0  0  0  0
   -5.5175  -29.0307   29.4178 O   0  0  0  0  0  0  0  0  0  0  0  0
   -3.4791  -25.6381   27.2830 C   0  0  0  0  0  0  0  0  0  0  0  0
  1  2  1  0
  2  3  2  0
  3  4  1  0
  4  5  2  0
  5  6  1  0
  6  7  2  0
  7  8  1  0
  8  9  1  0
  9 10  1  0
 11 10  1  6
 11 12  1  0
 12 13  1  0
 13 14  1  0
 14 15  1  0
 15 16  2  0
 10 17  1  0
  7  2  1  0
 15 11  1  0
 17  6  1  0
M  END
>  <inchikey>  (1723) 
ZEMHRXVRCMFXEP-UHFFFAOYSA-N

>  <tags>  (1723) 
fragmenstein_placed,CpKRS_FrAncestor_bulkdock_iter2

>  <ref_pdb>  (1723) 
x0654b

>  <energy_score>  (1723) 
-37.643572

>  <distance_score>  (1723) 
0.410374

>  <HIPPO Pose ID>  (1723) 
61822

>  <ref_mols>  (1723) 
x0675b

>  <smiles>  (1723) 
Cc1cccc2c1CCN(C1CCOC1=O)C2

>  <HIPPO Compound ID>  (1723) 
453274

>  <alias>  (1723) 
ZEMHRXVRCMFXEP-UHFFFAOYSA-N-P60

>  <subsites>  (1723) 


>  <placement_batch>  (1723) 
CpKRS_FrAncestor_bulkdock_iter2

>  <name>  (1723) 
ZEMHRXVRCMFXEP-UHFFFAOYSA-N-P60

$$$$
BWVCKAKOMJSEAB-UHFFFAOYSA-N-P60
     RDKit          3D

 14 15  0  0  0  0  0  0  0  0999 V2000
   -1.4248  -28.4678   23.4151 C   0  0  0  0  0  0  0  0  0  0  0  0
   -1.6220  -27.1586   24.1272 C   0  0  0  0  0  0  0  0  0  0  0  0
   -1.0042  -26.0085   23.6162 C   0  0  0  0  0  0  0  0  0  0  0  0
   -1.1750  -24.7757   24.2383 C   0  0  0  0  0  0  0  0  0  0  0  0
   -1.9512  -24.6765   25.3882 C   0  0  0  0  0  0  0  0  0  0  0  0
   -2.5823  -25.8086   25.9206 C   0  0  0  0  0  0  0  0  0  0  0  0
   -2.4395  -27.0530   25.2733 C   0  0  0  0  0  0  0  0  0  0  0  0
   -3.1254  -28.2646   25.8641 C   0  0  0  0  0  0  0  0  0  0  0  0
   -4.2652  -27.8993   26.8247 C   0  0  0  0  0  0  0  0  0  0  0  0
   -3.8041  -26.9126   27.8078 N   0  0  0  0  0  0  0  0  0  0  0  0
   -4.7694  -26.7129   28.9087 C   0  0  0  0  0  0  0  0  0  0  0  0
   -6.1186  -26.2359   28.5300 C   0  0  0  0  0  0  0  0  0  0  0  0
   -7.1768  -25.8646   28.2277 N   0  0  0  0  0  0  0  0  0  0  0  0
   -3.4693  -25.6458   27.1369 C   0  0  0  0  0  0  0  0  0  0  0  0
  1  2  1  0
  2  3  2  0
  3  4  1  0
  4  5  2  0
  5  6  1  0
  6  7  2  0
  7  8  1  0
  8  9  1  0
  9 10  1  0
 10 11  1  0
 11 12  1  0
 12 13  3  0
 10 14  1  0
  7  2  1  0
 14  6  1  0
M  END
>  <inchikey>  (1724) 
BWVCKAKOMJSEAB-UHFFFAOYSA-N

>  <tags>  (1724) 
fragmenstein_placed,CpKRS_FrAncestor_bulkdock_iter2

>  <ref_pdb>  (1724) 
x0654b

>  <energy_score>  (1724) 
-22.701255

>  <distance_score>  (1724) 
0.400918

>  <HIPPO Pose ID>  (1724) 
61824

>  <ref_mols>  (1724) 
x0675b

>  <smiles>  (1724) 
Cc1cccc2c1CCN(CC#N)C2

>  <HIPPO Compound ID>  (1724) 
453275

>  <alias>  (1724) 
BWVCKAKOMJSEAB-UHFFFAOYSA-N-P60

>  <subsites>  (1724) 


>  <placement_batch>  (1724) 
CpKRS_FrAncestor_bulkdock_iter2

>  <name>  (1724) 
BWVCKAKOMJSEAB-UHFFFAOYSA-N-P60

$$$$
NEYXFXXFZIDTSS-UHFFFAOYSA-N-P10
     RDKit          3D

 20 22  0  0  0  0  0  0  0  0999 V2000
    2.8107   -8.5754   24.9295 C   0  0  0  0  0  0  0  0  0  0  0  0
    4.3348   -8.4935   25.0881 C   0  0  0  0  0  0  0  0  0  0  0  0
    4.7342   -7.7732   26.3835 C   0  0  0  0  0  0  0  0  0  0  0  0
    5.0223   -7.7486   23.9692 C   0  0  0  0  0  0  0  0  0  0  0  0
    5.4210   -8.3680   22.8602 C   0  0  0  0  0  0  0  0  0  0  0  0
    5.1737   -9.7957   22.7944 C   0  0  0  0  0  0  0  0  0  0  0  0
    5.3040  -10.4426   21.5825 C   0  0  0  0  0  0  0  0  0  0  0  0
    5.1258  -11.8125   21.5344 C   0  0  0  0  0  0  0  0  0  0  0  0
    4.7977  -12.5486   22.6600 C   0  0  0  0  0  0  0  0  0  0  0  0
    4.6487  -11.9174   23.8852 C   0  0  0  0  0  0  0  0  0  0  0  0
    4.3335  -12.7071   24.9930 N   0  0  0  0  0  0  0  0  0  0  0  0
    4.0741  -14.2444   25.0985 C   0  0  0  0  0  0  0  0  0  0  0  0
    4.1606  -15.0665   24.3040 O   0  0  0  0  0  0  0  0  0  0  0  0
    3.7636  -14.3443   26.5882 N   0  0  0  0  0  0  0  0  0  0  0  0
    3.5751  -15.5860   27.4946 C   0  0  0  0  0  0  0  0  0  0  0  0
    2.2396  -15.2061   27.9888 C   0  0  0  0  0  0  0  0  0  0  0  0
    1.5125  -15.5791   28.8835 O   0  0  0  0  0  0  0  0  0  0  0  0
    2.1736  -14.2475   26.8654 C   0  0  0  0  0  0  0  0  0  0  0  0
    4.8412  -10.5265   23.9492 C   0  0  0  0  0  0  0  0  0  0  0  0
    4.7700   -9.8734   25.1555 O   0  0  0  0  0  0  0  0  0  0  0  0
  1  2  1  0
  2  3  1  0
  2  4  1  0
  4  5  2  0
  5  6  1  0
  6  7  2  0
  7  8  1  0
  8  9  2  0
  9 10  1  0
 10 11  1  0
 11 12  1  0
 12 13  2  0
 12 14  1  0
 14 15  1  0
 15 16  1  0
 16 17  2  0
 16 18  1  0
 10 19  2  0
 19 20  1  0
 20  2  1  0
 19  6  1  0
 18 14  1  0
M  END
>  <inchikey>  (1725) 
NEYXFXXFZIDTSS-UHFFFAOYSA-N

>  <tags>  (1725) 
fragmenstein_placed,CpKRS_FrAncestor_bulkdock_iter2

>  <ref_pdb>  (1725) 
x0654b

>  <energy_score>  (1725) 
-3.042527

>  <distance_score>  (1725) 
0.659282

>  <HIPPO Pose ID>  (1725) 
61830

>  <ref_mols>  (1725) 
x0419c

>  <smiles>  (1725) 
CC1(C)C=Cc2cccc(NC(=O)N3CC(=O)C3)c2O1

>  <HIPPO Compound ID>  (1725) 
453276

>  <alias>  (1725) 
NEYXFXXFZIDTSS-UHFFFAOYSA-N-P10

>  <subsites>  (1725) 


>  <placement_batch>  (1725) 
CpKRS_FrAncestor_bulkdock_iter2

>  <name>  (1725) 
NEYXFXXFZIDTSS-UHFFFAOYSA-N-P10

$$$$
XKCQSLHQQBUMJQ-BQBZGAKWSA-N-P14
     RDKit          3D

 15 16  0  0  0  0  0  0  0  0999 V2000
    6.1126   -8.3568   24.1537 C   0  0  0  0  0  0  0  0  0  0  0  0
    4.7210   -8.4175   23.5665 C   0  0  0  0  0  0  0  0  0  0  0  0
    4.3689   -9.7294   22.8847 C   0  0  1  0  0  0  0  0  0  0  0  0
    5.0680   -9.9717   21.5159 C   0  0  0  0  0  0  0  0  0  0  0  0
    4.9576  -11.4748   21.8280 C   0  0  0  0  0  0  0  0  0  0  0  0
    4.9791  -11.0898   23.3197 C   0  0  2  0  0  0  0  0  0  0  0  0
    4.1807  -11.9721   24.1412 N   0  0  0  0  0  0  0  0  0  0  0  0
    4.5867  -13.1974   24.9791 C   0  0  0  0  0  0  0  0  0  0  0  0
    5.6147  -13.7363   25.0797 O   0  0  0  0  0  0  0  0  0  0  0  0
    3.4314  -13.6158   25.7887 C   0  0  0  0  0  0  0  0  0  0  0  0
    3.5039  -14.6012   26.7631 C   0  0  0  0  0  0  0  0  0  0  0  0
    1.9807  -14.7989   27.5151 S   0  0  0  0  0  0  0  0  0  0  0  0
    1.3537  -13.6209   26.4704 C   0  0  0  0  0  0  0  0  0  0  0  0
   -0.3276  -13.2813   26.4766 Cl  0  0  0  0  0  0  0  0  0  0  0  0
    2.1728  -13.0118   25.6537 N   0  0  0  0  0  0  0  0  0  0  0  0
  1  2  1  0
  3  2  1  1
  3  4  1  0
  4  5  1  0
  5  6  1  0
  6  7  1  1
  7  8  1  0
  8  9  2  0
  8 10  1  0
 10 11  2  0
 11 12  1  0
 12 13  1  0
 13 14  1  0
 13 15  2  0
  6  3  1  0
 15 10  1  0
M  END
>  <inchikey>  (1726) 
XKCQSLHQQBUMJQ-UHFFFAOYSA-N

>  <tags>  (1726) 
fragmenstein_placed,CpKRS_FrAncestor_bulkdock_iter2

>  <ref_pdb>  (1726) 
x0421a

>  <energy_score>  (1726) 
-69.633253

>  <distance_score>  (1726) 
0.592276

>  <HIPPO Pose ID>  (1726) 
61851

>  <ref_mols>  (1726) 
x0421d

>  <smiles>  (1726) 
CC[C@H]1CC[C@@H]1NC(=O)c1csc(Cl)n1

>  <HIPPO Compound ID>  (1726) 
29401

>  <alias>  (1726) 
XKCQSLHQQBUMJQ-BQBZGAKWSA-N-P14

>  <subsites>  (1726) 


>  <placement_batch>  (1726) 
CpKRS_FrAncestor_bulkdock_iter2

>  <name>  (1726) 
XKCQSLHQQBUMJQ-BQBZGAKWSA-N-P14

$$$$
DIWJJDFXZMCJQK-IUCAKERBSA-N-P13
     RDKit          3D

 15 16  0  0  0  0  0  0  0  0999 V2000
    5.6781   -7.2553   24.2333 C   0  0  0  0  0  0  0  0  0  0  0  0
    5.9649   -8.7408   24.1996 C   0  0  0  0  0  0  0  0  0  0  0  0
    4.8585   -9.5042   23.4933 C   0  0  1  0  0  0  0  0  0  0  0  0
    4.9120   -9.4187   21.9435 C   0  0  0  0  0  0  0  0  0  0  0  0
    4.5514  -10.9128   21.9154 C   0  0  0  0  0  0  0  0  0  0  0  0
    5.1228  -11.0227   23.3323 C   0  0  2  0  0  0  0  0  0  0  0  0
    4.3778  -11.9194   24.1926 N   0  0  0  0  0  0  0  0  0  0  0  0
    4.8027  -13.2313   24.8775 C   0  0  0  0  0  0  0  0  0  0  0  0
    5.8407  -13.7586   24.9210 O   0  0  0  0  0  0  0  0  0  0  0  0
    3.6346  -13.7908   25.5776 C   0  0  0  0  0  0  0  0  0  0  0  0
    3.7010  -14.8840   26.4219 C   0  0  0  0  0  0  0  0  0  0  0  0
    2.1655  -15.2062   27.0921 S   0  0  0  0  0  0  0  0  0  0  0  0
    1.5025  -13.9158   26.1759 C   0  0  0  0  0  0  0  0  0  0  0  0
    0.0460  -13.6351   26.2460 C   0  0  0  0  0  0  0  0  0  0  0  0
    2.3557  -13.2320   25.4456 N   0  0  0  0  0  0  0  0  0  0  0  0
  1  2  1  0
  3  2  1  1
  3  4  1  0
  4  5  1  0
  5  6  1  0
  6  7  1  1
  7  8  1  0
  8  9  2  0
  8 10  1  0
 10 11  2  0
 11 12  1  0
 12 13  1  0
 13 14  1  0
 13 15  2  0
  6  3  1  0
 15 10  1  0
M  END
>  <inchikey>  (1727) 
DIWJJDFXZMCJQK-UHFFFAOYSA-N

>  <tags>  (1727) 
fragmenstein_placed,CpKRS_FrAncestor_bulkdock_iter2

>  <ref_pdb>  (1727) 
x0421a

>  <energy_score>  (1727) 
-63.364162

>  <distance_score>  (1727) 
0.535381

>  <HIPPO Pose ID>  (1727) 
61854

>  <ref_mols>  (1727) 
x0421c

>  <smiles>  (1727) 
CC[C@H]1CC[C@@H]1NC(=O)c1csc(C)n1

>  <HIPPO Compound ID>  (1727) 
29402

>  <alias>  (1727) 
DIWJJDFXZMCJQK-IUCAKERBSA-N-P13

>  <subsites>  (1727) 


>  <placement_batch>  (1727) 
CpKRS_FrAncestor_bulkdock_iter2

>  <name>  (1727) 
DIWJJDFXZMCJQK-IUCAKERBSA-N-P13

$$$$
YHIQWMZTZXPJNN-WPRPVWTQSA-N-P13
     RDKit          3D

 16 17  0  0  0  0  0  0  0  0999 V2000
    4.9871   -7.9938   25.1677 C   0  0  0  0  0  0  0  0  0  0  0  0
    5.4365   -8.1721   23.7290 C   0  0  0  0  0  0  0  0  0  0  0  0
    4.7092   -9.3385   23.0779 C   0  0  1  0  0  0  0  0  0  0  0  0
    5.2371   -9.6093   21.6421 C   0  0  0  0  0  0  0  0  0  0  0  0
    5.0817  -11.1061   21.9340 C   0  0  0  0  0  0  0  0  0  0  0  0
    5.1936  -10.7637   23.4327 C   0  0  2  0  0  0  0  0  0  0  0  0
    4.3400  -11.6125   24.2355 N   0  0  0  0  0  0  0  0  0  0  0  0
    4.5021  -13.0890   24.6518 C   0  0  0  0  0  0  0  0  0  0  0  0
    5.3839  -13.8292   24.4783 O   0  0  0  0  0  0  0  0  0  0  0  0
    3.2743  -13.5355   25.4186 C   0  0  0  0  0  0  0  0  0  0  0  0
    2.1637  -12.7545   25.2061 N   0  0  0  0  0  0  0  0  0  0  0  0
    1.0209  -13.1236   25.8225 C   0  0  0  0  0  0  0  0  0  0  0  0
    0.9282  -14.2079   26.6733 C   0  0  0  0  0  0  0  0  0  0  0  0
    2.0670  -14.9733   26.8979 C   0  0  0  0  0  0  0  0  0  0  0  0
    3.2640  -14.6480   26.2574 C   0  0  0  0  0  0  0  0  0  0  0  0
    4.7502  -15.7479   26.6329 Br  0  0  0  0  0  0  0  0  0  0  0  0
  1  2  1  0
  3  2  1  1
  3  4  1  0
  4  5  1  0
  5  6  1  0
  6  7  1  1
  7  8  1  0
  8  9  2  0
  8 10  1  0
 10 11  2  0
 11 12  1  0
 12 13  2  0
 13 14  1  0
 14 15  2  0
 15 16  1  0
  6  3  1  0
 15 10  1  0
M  END
>  <inchikey>  (1728) 
YHIQWMZTZXPJNN-UHFFFAOYSA-N

>  <tags>  (1728) 
fragmenstein_placed,CpKRS_FrAncestor_bulkdock_iter2

>  <ref_pdb>  (1728) 
x0421a

>  <energy_score>  (1728) 
-10.773758

>  <distance_score>  (1728) 
0.599956

>  <HIPPO Pose ID>  (1728) 
61858

>  <ref_mols>  (1728) 
x0421c

>  <smiles>  (1728) 
CC[C@H]1CC[C@@H]1NC(=O)c1ncccc1Br

>  <HIPPO Compound ID>  (1728) 
29403

>  <alias>  (1728) 
YHIQWMZTZXPJNN-WPRPVWTQSA-N-P13

>  <subsites>  (1728) 


>  <placement_batch>  (1728) 
CpKRS_FrAncestor_bulkdock_iter2

>  <name>  (1728) 
YHIQWMZTZXPJNN-WPRPVWTQSA-N-P13

$$$$
HOACKXWSXQPODL-QWRGUYRKSA-N-P13
     RDKit          3D

 16 17  0  0  0  0  0  0  0  0999 V2000
    2.9356   -8.9019   24.4817 C   0  0  0  0  0  0  0  0  0  0  0  0
    3.4819   -9.3077   23.1245 C   0  0  0  0  0  0  0  0  0  0  0  0
    4.9463   -9.6634   23.2122 C   0  0  2  0  0  0  0  0  0  0  0  0
    5.5737   -9.9102   21.8125 C   0  0  0  0  0  0  0  0  0  0  0  0
    5.3495  -11.4134   22.0465 C   0  0  0  0  0  0  0  0  0  0  0  0
    5.3470  -11.1128   23.5563 C   0  0  2  0  0  0  0  0  0  0  0  0
    4.4489  -11.9625   24.3045 N   0  0  0  0  0  0  0  0  0  0  0  0
    4.6587  -13.3747   24.8865 C   0  0  0  0  0  0  0  0  0  0  0  0
    5.6127  -14.0432   24.9208 O   0  0  0  0  0  0  0  0  0  0  0  0
    3.3702  -13.8071   25.5685 C   0  0  0  0  0  0  0  0  0  0  0  0
    2.2832  -13.0222   25.2714 N   0  0  0  0  0  0  0  0  0  0  0  0
    1.1149  -13.3348   25.8671 C   0  0  0  0  0  0  0  0  0  0  0  0
    0.9730  -14.3739   26.7633 C   0  0  0  0  0  0  0  0  0  0  0  0
    2.0869  -15.1517   27.0594 C   0  0  0  0  0  0  0  0  0  0  0  0
    3.3203  -14.8832   26.4563 C   0  0  0  0  0  0  0  0  0  0  0  0
    4.4974  -15.7473   26.7848 C   0  0  0  0  0  0  0  0  0  0  0  0
  1  2  1  0
  3  2  1  6
  3  4  1  0
  4  5  1  0
  5  6  1  0
  6  7  1  1
  7  8  1  0
  8  9  2  0
  8 10  1  0
 10 11  2  0
 11 12  1  0
 12 13  2  0
 13 14  1  0
 14 15  2  0
 15 16  1  0
  6  3  1  0
 15 10  1  0
M  END
>  <inchikey>  (1729) 
HOACKXWSXQPODL-UHFFFAOYSA-N

>  <tags>  (1729) 
fragmenstein_placed,CpKRS_FrAncestor_bulkdock_iter2

>  <ref_pdb>  (1729) 
x0421a

>  <energy_score>  (1729) 
-26.17964

>  <distance_score>  (1729) 
0.816521

>  <HIPPO Pose ID>  (1729) 
61862

>  <ref_mols>  (1729) 
x0421c

>  <smiles>  (1729) 
CC[C@H]1CC[C@@H]1NC(=O)c1ncccc1C

>  <HIPPO Compound ID>  (1729) 
29405

>  <alias>  (1729) 
HOACKXWSXQPODL-QWRGUYRKSA-N-P13

>  <subsites>  (1729) 


>  <placement_batch>  (1729) 
CpKRS_FrAncestor_bulkdock_iter2

>  <name>  (1729) 
HOACKXWSXQPODL-QWRGUYRKSA-N-P13

$$$$
PUHKPMAIIVYIEU-WPRPVWTQSA-N-P13
     RDKit          3D

 16 17  0  0  0  0  0  0  0  0999 V2000
    4.9095   -8.0534   25.1535 C   0  0  0  0  0  0  0  0  0  0  0  0
    5.3894   -8.2540   23.7283 C   0  0  0  0  0  0  0  0  0  0  0  0
    4.6902   -9.4423   23.0839 C   0  0  1  0  0  0  0  0  0  0  0  0
    5.2534   -9.7121   21.6613 C   0  0  0  0  0  0  0  0  0  0  0  0
    5.1222  -11.2093   21.9578 C   0  0  0  0  0  0  0  0  0  0  0  0
    5.1843  -10.8612   23.4595 C   0  0  2  0  0  0  0  0  0  0  0  0
    4.3178  -11.7296   24.2311 N   0  0  0  0  0  0  0  0  0  0  0  0
    4.5212  -13.1862   24.7042 C   0  0  0  0  0  0  0  0  0  0  0  0
    5.3827  -13.9387   24.4820 O   0  0  0  0  0  0  0  0  0  0  0  0
    3.3252  -13.6277   25.5157 C   0  0  0  0  0  0  0  0  0  0  0  0
    2.1912  -12.8764   25.3062 N   0  0  0  0  0  0  0  0  0  0  0  0
    1.0730  -13.2561   25.9598 C   0  0  0  0  0  0  0  0  0  0  0  0
    1.0275  -14.3223   26.8379 C   0  0  0  0  0  0  0  0  0  0  0  0
    2.1898  -15.0580   27.0519 C   0  0  0  0  0  0  0  0  0  0  0  0
    3.3651  -14.7211   26.3792 C   0  0  0  0  0  0  0  0  0  0  0  0
    4.7557  -15.6776   26.7103 Cl  0  0  0  0  0  0  0  0  0  0  0  0
  1  2  1  0
  3  2  1  1
  3  4  1  0
  4  5  1  0
  5  6  1  0
  6  7  1  1
  7  8  1  0
  8  9  2  0
  8 10  1  0
 10 11  2  0
 11 12  1  0
 12 13  2  0
 13 14  1  0
 14 15  2  0
 15 16  1  0
  6  3  1  0
 15 10  1  0
M  END
>  <inchikey>  (1730) 
PUHKPMAIIVYIEU-UHFFFAOYSA-N

>  <tags>  (1730) 
fragmenstein_placed,CpKRS_FrAncestor_bulkdock_iter2

>  <ref_pdb>  (1730) 
x0421a

>  <energy_score>  (1730) 
-20.641194

>  <distance_score>  (1730) 
0.578391

>  <HIPPO Pose ID>  (1730) 
61866

>  <ref_mols>  (1730) 
x0421c

>  <smiles>  (1730) 
CC[C@H]1CC[C@@H]1NC(=O)c1ncccc1Cl

>  <HIPPO Compound ID>  (1730) 
29404

>  <alias>  (1730) 
PUHKPMAIIVYIEU-WPRPVWTQSA-N-P13

>  <subsites>  (1730) 


>  <placement_batch>  (1730) 
CpKRS_FrAncestor_bulkdock_iter2

>  <name>  (1730) 
PUHKPMAIIVYIEU-WPRPVWTQSA-N-P13

$$$$
LBGAJHNZRNQMHB-WPRPVWTQSA-N-P13
     RDKit          3D

 16 17  0  0  0  0  0  0  0  0999 V2000
    6.3323   -8.3390   24.3105 C   0  0  0  0  0  0  0  0  0  0  0  0
    4.9268   -8.3871   23.7530 C   0  0  0  0  0  0  0  0  0  0  0  0
    4.5583   -9.6846   23.0495 C   0  0  1  0  0  0  0  0  0  0  0  0
    5.2752   -9.9199   21.6895 C   0  0  0  0  0  0  0  0  0  0  0  0
    5.1753  -11.4247   21.9872 C   0  0  0  0  0  0  0  0  0  0  0  0
    5.1332  -11.0596   23.4866 C   0  0  2  0  0  0  0  0  0  0  0  0
    4.2794  -11.9518   24.2442 N   0  0  0  0  0  0  0  0  0  0  0  0
    4.5780  -13.3301   24.8767 C   0  0  0  0  0  0  0  0  0  0  0  0
    5.5335  -13.9957   24.8208 O   0  0  0  0  0  0  0  0  0  0  0  0
    3.3789  -13.7912   25.6570 C   0  0  0  0  0  0  0  0  0  0  0  0
    2.2235  -13.0711   25.4605 N   0  0  0  0  0  0  0  0  0  0  0  0
    1.1356  -13.4767   26.1503 C   0  0  0  0  0  0  0  0  0  0  0  0
    1.1446  -14.5402   27.0375 C   0  0  0  0  0  0  0  0  0  0  0  0
    2.3297  -15.2501   27.2199 C   0  0  0  0  0  0  0  0  0  0  0  0
    3.4675  -14.8770   26.5174 C   0  0  0  0  0  0  0  0  0  0  0  0
    4.5991  -15.5685   26.7136 F   0  0  0  0  0  0  0  0  0  0  0  0
  1  2  1  0
  3  2  1  1
  3  4  1  0
  4  5  1  0
  5  6  1  0
  6  7  1  1
  7  8  1  0
  8  9  2  0
  8 10  1  0
 10 11  2  0
 11 12  1  0
 12 13  2  0
 13 14  1  0
 14 15  2  0
 15 16  1  0
  6  3  1  0
 15 10  1  0
M  END
>  <inchikey>  (1731) 
LBGAJHNZRNQMHB-UHFFFAOYSA-N

>  <tags>  (1731) 
fragmenstein_placed,CpKRS_FrAncestor_bulkdock_iter2

>  <ref_pdb>  (1731) 
x0421a

>  <energy_score>  (1731) 
-6.422019

>  <distance_score>  (1731) 
0.6492

>  <HIPPO Pose ID>  (1731) 
61870

>  <ref_mols>  (1731) 
x0421c

>  <smiles>  (1731) 
CC[C@H]1CC[C@@H]1NC(=O)c1ncccc1F

>  <HIPPO Compound ID>  (1731) 
29406

>  <alias>  (1731) 
LBGAJHNZRNQMHB-WPRPVWTQSA-N-P13

>  <subsites>  (1731) 


>  <placement_batch>  (1731) 
CpKRS_FrAncestor_bulkdock_iter2

>  <name>  (1731) 
LBGAJHNZRNQMHB-WPRPVWTQSA-N-P13

$$$$
COODACFOUBVPPD-IUCAKERBSA-N-P12
     RDKit          3D

 15 16  0  0  0  0  0  0  0  0999 V2000
    5.7819   -7.3021   24.2164 C   0  0  0  0  0  0  0  0  0  0  0  0
    5.9990   -8.7944   24.0884 C   0  0  0  0  0  0  0  0  0  0  0  0
    4.7932   -9.4822   23.4726 C   0  0  1  0  0  0  0  0  0  0  0  0
    4.7214   -9.3337   21.9296 C   0  0  0  0  0  0  0  0  0  0  0  0
    4.3321  -10.8146   21.8589 C   0  0  0  0  0  0  0  0  0  0  0  0
    4.9541  -11.0080   23.2460 C   0  0  2  0  0  0  0  0  0  0  0  0
    4.1694  -11.8925   24.0872 N   0  0  0  0  0  0  0  0  0  0  0  0
    4.5551  -13.2086   24.7898 C   0  0  0  0  0  0  0  0  0  0  0  0
    5.5402  -13.8300   24.7419 O   0  0  0  0  0  0  0  0  0  0  0  0
    3.4047  -13.6323   25.5888 C   0  0  0  0  0  0  0  0  0  0  0  0
    2.1833  -12.9697   25.5624 N   0  0  0  0  0  0  0  0  0  0  0  0
    1.4615  -13.6277   26.4417 C   0  0  0  0  0  0  0  0  0  0  0  0
    2.0825  -14.6891   27.0260 O   0  0  0  0  0  0  0  0  0  0  0  0
    3.3368  -14.6858   26.4763 C   0  0  0  0  0  0  0  0  0  0  0  0
    4.2831  -15.7193   26.9305 C   0  0  0  0  0  0  0  0  0  0  0  0
  1  2  1  0
  3  2  1  6
  3  4  1  0
  4  5  1  0
  5  6  1  0
  6  7  1  1
  7  8  1  0
  8  9  2  0
  8 10  1  0
 10 11  1  0
 11 12  2  0
 12 13  1  0
 13 14  1  0
 14 15  1  0
  6  3  1  0
 14 10  2  0
M  END
>  <inchikey>  (1732) 
COODACFOUBVPPD-UHFFFAOYSA-N

>  <tags>  (1732) 
fragmenstein_placed,CpKRS_FrAncestor_bulkdock_iter2

>  <ref_pdb>  (1732) 
x0421a

>  <energy_score>  (1732) 
-13.742211

>  <distance_score>  (1732) 
0.584944

>  <HIPPO Pose ID>  (1732) 
61877

>  <ref_mols>  (1732) 
x0421b

>  <smiles>  (1732) 
CC[C@H]1CC[C@@H]1NC(=O)c1ncoc1C

>  <HIPPO Compound ID>  (1732) 
29408

>  <alias>  (1732) 
COODACFOUBVPPD-IUCAKERBSA-N-P12

>  <subsites>  (1732) 


>  <placement_batch>  (1732) 
CpKRS_FrAncestor_bulkdock_iter2

>  <name>  (1732) 
COODACFOUBVPPD-IUCAKERBSA-N-P12

$$$$
ARNXWKNEKNGWNA-BQBZGAKWSA-N-P13
     RDKit          3D

 15 16  0  0  0  0  0  0  0  0999 V2000
    5.7140   -7.1434   24.3148 C   0  0  0  0  0  0  0  0  0  0  0  0
    5.9671   -8.6330   24.2510 C   0  0  0  0  0  0  0  0  0  0  0  0
    4.8881   -9.3443   23.4551 C   0  0  1  0  0  0  0  0  0  0  0  0
    5.0542   -9.2537   21.9139 C   0  0  0  0  0  0  0  0  0  0  0  0
    4.6898  -10.7432   21.8479 C   0  0  0  0  0  0  0  0  0  0  0  0
    5.1226  -10.8653   23.3112 C   0  0  2  0  0  0  0  0  0  0  0  0
    4.2672  -11.7375   24.0854 N   0  0  0  0  0  0  0  0  0  0  0  0
    4.5339  -13.1316   24.6741 C   0  0  0  0  0  0  0  0  0  0  0  0
    5.4564  -13.8323   24.5653 O   0  0  0  0  0  0  0  0  0  0  0  0
    3.3277  -13.5438   25.4196 C   0  0  0  0  0  0  0  0  0  0  0  0
    2.1296  -12.8096   25.3041 N   0  0  0  0  0  0  0  0  0  0  0  0
    1.1957  -13.3814   26.0322 C   0  0  0  0  0  0  0  0  0  0  0  0
    1.6686  -14.7528   26.9357 S   0  0  0  0  0  0  0  0  0  0  0  0
    3.2270  -14.6262   26.2681 C   0  0  0  0  0  0  0  0  0  0  0  0
    4.6068  -15.8533   26.7119 Br  0  0  0  0  0  0  0  0  0  0  0  0
  1  2  1  0
  3  2  1  1
  3  4  1  0
  4  5  1  0
  5  6  1  0
  6  7  1  1
  7  8  1  0
  8  9  2  0
  8 10  1  0
 10 11  1  0
 11 12  2  0
 12 13  1  0
 13 14  1  0
 14 15  1  0
  6  3  1  0
 14 10  2  0
M  END
>  <inchikey>  (1733) 
ARNXWKNEKNGWNA-UHFFFAOYSA-N

>  <tags>  (1733) 
fragmenstein_placed,CpKRS_FrAncestor_bulkdock_iter2

>  <ref_pdb>  (1733) 
x0421a

>  <energy_score>  (1733) 
-36.409337

>  <distance_score>  (1733) 
0.614404

>  <HIPPO Pose ID>  (1733) 
61882

>  <ref_mols>  (1733) 
x0421c

>  <smiles>  (1733) 
CC[C@H]1CC[C@@H]1NC(=O)c1ncsc1Br

>  <HIPPO Compound ID>  (1733) 
29409

>  <alias>  (1733) 
ARNXWKNEKNGWNA-BQBZGAKWSA-N-P13

>  <subsites>  (1733) 


>  <placement_batch>  (1733) 
CpKRS_FrAncestor_bulkdock_iter2

>  <name>  (1733) 
ARNXWKNEKNGWNA-BQBZGAKWSA-N-P13

$$$$
ASRGDGDJLJHTCU-IUCAKERBSA-N-P14
     RDKit          3D

 15 16  0  0  0  0  0  0  0  0999 V2000
    4.9245   -8.1192   24.8662 C   0  0  0  0  0  0  0  0  0  0  0  0
    5.2632   -8.4030   23.4163 C   0  0  0  0  0  0  0  0  0  0  0  0
    4.5208   -9.6330   22.9130 C   0  0  1  0  0  0  0  0  0  0  0  0
    5.0025   -9.9984   21.4829 C   0  0  0  0  0  0  0  0  0  0  0  0
    4.8373  -11.4726   21.8725 C   0  0  0  0  0  0  0  0  0  0  0  0
    5.0147  -11.0408   23.3399 C   0  0  2  0  0  0  0  0  0  0  0  0
    4.2093  -11.8276   24.2541 N   0  0  0  0  0  0  0  0  0  0  0  0
    4.5271  -13.1482   24.9881 C   0  0  0  0  0  0  0  0  0  0  0  0
    5.5135  -13.7697   25.0330 O   0  0  0  0  0  0  0  0  0  0  0  0
    3.3432  -13.5310   25.7967 C   0  0  0  0  0  0  0  0  0  0  0  0
    2.1355  -12.8115   25.6804 N   0  0  0  0  0  0  0  0  0  0  0  0
    1.2452  -13.3301   26.4935 C   0  0  0  0  0  0  0  0  0  0  0  0
    1.7700  -14.6128   27.4883 S   0  0  0  0  0  0  0  0  0  0  0  0
    3.3172  -14.5479   26.7487 C   0  0  0  0  0  0  0  0  0  0  0  0
    4.3686  -15.5094   27.1882 C   0  0  0  0  0  0  0  0  0  0  0  0
  1  2  1  0
  3  2  1  1
  3  4  1  0
  4  5  1  0
  5  6  1  0
  6  7  1  1
  7  8  1  0
  8  9  2  0
  8 10  1  0
 10 11  1  0
 11 12  2  0
 12 13  1  0
 13 14  1  0
 14 15  1  0
  6  3  1  0
 14 10  2  0
M  END
>  <inchikey>  (1734) 
ASRGDGDJLJHTCU-UHFFFAOYSA-N

>  <tags>  (1734) 
fragmenstein_placed,CpKRS_FrAncestor_bulkdock_iter2

>  <ref_pdb>  (1734) 
x0421a

>  <energy_score>  (1734) 
-49.217473

>  <distance_score>  (1734) 
0.536622

>  <HIPPO Pose ID>  (1734) 
61887

>  <ref_mols>  (1734) 
x0421d

>  <smiles>  (1734) 
CC[C@H]1CC[C@@H]1NC(=O)c1ncsc1C

>  <HIPPO Compound ID>  (1734) 
29411

>  <alias>  (1734) 
ASRGDGDJLJHTCU-IUCAKERBSA-N-P14

>  <subsites>  (1734) 


>  <placement_batch>  (1734) 
CpKRS_FrAncestor_bulkdock_iter2

>  <name>  (1734) 
ASRGDGDJLJHTCU-IUCAKERBSA-N-P14

$$$$
LNZMHRPMLVHDJP-BQBZGAKWSA-N-P14
     RDKit          3D

 15 16  0  0  0  0  0  0  0  0999 V2000
    5.6234   -7.3354   23.9730 C   0  0  0  0  0  0  0  0  0  0  0  0
    5.8543   -8.8301   23.9697 C   0  0  0  0  0  0  0  0  0  0  0  0
    4.7075   -9.5768   23.3150 C   0  0  1  0  0  0  0  0  0  0  0  0
    4.7465   -9.5453   21.7644 C   0  0  0  0  0  0  0  0  0  0  0  0
    4.3475  -11.0281   21.7859 C   0  0  0  0  0  0  0  0  0  0  0  0
    4.9043  -11.1114   23.2083 C   0  0  2  0  0  0  0  0  0  0  0  0
    4.1101  -11.9447   24.0892 N   0  0  0  0  0  0  0  0  0  0  0  0
    4.5062  -13.1697   24.9325 C   0  0  0  0  0  0  0  0  0  0  0  0
    5.5144  -13.7496   24.9941 O   0  0  0  0  0  0  0  0  0  0  0  0
    3.3493  -13.5324   25.7743 C   0  0  0  0  0  0  0  0  0  0  0  0
    2.1345  -12.8083   25.6990 N   0  0  0  0  0  0  0  0  0  0  0  0
    1.2729  -13.3355   26.5410 C   0  0  0  0  0  0  0  0  0  0  0  0
    1.8346  -14.6287   27.5096 S   0  0  0  0  0  0  0  0  0  0  0  0
    3.3273  -14.5513   26.7041 C   0  0  0  0  0  0  0  0  0  0  0  0
    4.5326  -15.6970   27.1195 Cl  0  0  0  0  0  0  0  0  0  0  0  0
  1  2  1  0
  3  2  1  1
  3  4  1  0
  4  5  1  0
  5  6  1  0
  6  7  1  1
  7  8  1  0
  8  9  2  0
  8 10  1  0
 10 11  1  0
 11 12  2  0
 12 13  1  0
 13 14  1  0
 14 15  1  0
  6  3  1  0
 14 10  2  0
M  END
>  <inchikey>  (1735) 
LNZMHRPMLVHDJP-UHFFFAOYSA-N

>  <tags>  (1735) 
fragmenstein_placed,CpKRS_FrAncestor_bulkdock_iter2

>  <ref_pdb>  (1735) 
x0421a

>  <energy_score>  (1735) 
-35.4335

>  <distance_score>  (1735) 
0.552352

>  <HIPPO Pose ID>  (1735) 
61891

>  <ref_mols>  (1735) 
x0421d

>  <smiles>  (1735) 
CC[C@H]1CC[C@@H]1NC(=O)c1ncsc1Cl

>  <HIPPO Compound ID>  (1735) 
29410

>  <alias>  (1735) 
LNZMHRPMLVHDJP-BQBZGAKWSA-N-P14

>  <subsites>  (1735) 


>  <placement_batch>  (1735) 
CpKRS_FrAncestor_bulkdock_iter2

>  <name>  (1735) 
LNZMHRPMLVHDJP-BQBZGAKWSA-N-P14

$$$$
OYNBTUXXYPXBRF-IUCAKERBSA-N-P12
     RDKit          3D

 15 16  0  0  0  0  0  0  0  0999 V2000
    5.0910   -8.0812   25.1146 C   0  0  0  0  0  0  0  0  0  0  0  0
    5.4707   -8.3176   23.6665 C   0  0  0  0  0  0  0  0  0  0  0  0
    4.6592   -9.4600   23.0715 C   0  0  1  0  0  0  0  0  0  0  0  0
    5.0951   -9.7091   21.6018 C   0  0  0  0  0  0  0  0  0  0  0  0
    4.8795  -11.2034   21.8562 C   0  0  0  0  0  0  0  0  0  0  0  0
    5.0982  -10.9206   23.3567 C   0  0  2  0  0  0  0  0  0  0  0  0
    4.2580  -11.7767   24.1703 N   0  0  0  0  0  0  0  0  0  0  0  0
    4.5517  -13.1504   24.8169 C   0  0  0  0  0  0  0  0  0  0  0  0
    5.4885  -13.8418   24.7315 O   0  0  0  0  0  0  0  0  0  0  0  0
    3.3754  -13.5832   25.5933 C   0  0  0  0  0  0  0  0  0  0  0  0
    2.1990  -12.9382   25.4846 N   0  0  0  0  0  0  0  0  0  0  0  0
    1.3429  -13.5646   26.3698 O   0  0  0  0  0  0  0  0  0  0  0  0
    1.9936  -14.5762   26.9876 C   0  0  0  0  0  0  0  0  0  0  0  0
    3.2809  -14.6650   26.5187 C   0  0  0  0  0  0  0  0  0  0  0  0
    4.3261  -15.6356   26.9096 C   0  0  0  0  0  0  0  0  0  0  0  0
  1  2  1  0
  3  2  1  1
  3  4  1  0
  4  5  1  0
  5  6  1  0
  6  7  1  1
  7  8  1  0
  8  9  2  0
  8 10  1  0
 10 11  2  0
 11 12  1  0
 12 13  1  0
 13 14  2  0
 14 15  1  0
  6  3  1  0
 14 10  1  0
M  END
>  <inchikey>  (1736) 
OYNBTUXXYPXBRF-UHFFFAOYSA-N

>  <tags>  (1736) 
fragmenstein_placed,CpKRS_FrAncestor_bulkdock_iter2

>  <ref_pdb>  (1736) 
x0421a

>  <energy_score>  (1736) 
-16.451371

>  <distance_score>  (1736) 
0.544345

>  <HIPPO Pose ID>  (1736) 
61897

>  <ref_mols>  (1736) 
x0421b

>  <smiles>  (1736) 
CC[C@H]1CC[C@@H]1NC(=O)c1nocc1C

>  <HIPPO Compound ID>  (1736) 
29414

>  <alias>  (1736) 
OYNBTUXXYPXBRF-IUCAKERBSA-N-P12

>  <subsites>  (1736) 


>  <placement_batch>  (1736) 
CpKRS_FrAncestor_bulkdock_iter2

>  <name>  (1736) 
OYNBTUXXYPXBRF-IUCAKERBSA-N-P12

$$$$
RZVDGBRZIMLUOB-XPUUQOCRSA-N-P13
     RDKit          3D

 15 16  0  0  0  0  0  0  0  0999 V2000
    6.3577   -8.2748   24.3042 C   0  0  0  0  0  0  0  0  0  0  0  0
    4.9693   -8.2812   23.7052 C   0  0  0  0  0  0  0  0  0  0  0  0
    4.5762   -9.5758   23.0114 C   0  0  1  0  0  0  0  0  0  0  0  0
    5.2915   -9.8435   21.6572 C   0  0  0  0  0  0  0  0  0  0  0  0
    5.1612  -11.3425   21.9741 C   0  0  0  0  0  0  0  0  0  0  0  0
    5.1241  -10.9540   23.4670 C   0  0  2  0  0  0  0  0  0  0  0  0
    4.2515  -11.8100   24.2400 N   0  0  0  0  0  0  0  0  0  0  0  0
    4.4729  -13.2359   24.7849 C   0  0  0  0  0  0  0  0  0  0  0  0
    5.3623  -13.9734   24.6314 O   0  0  0  0  0  0  0  0  0  0  0  0
    3.3085  -13.6404   25.5889 C   0  0  0  0  0  0  0  0  0  0  0  0
    2.1449  -12.9566   25.5510 N   0  0  0  0  0  0  0  0  0  0  0  0
    1.2953  -13.6107   26.4277 O   0  0  0  0  0  0  0  0  0  0  0  0
    1.9425  -14.6605   26.9855 C   0  0  0  0  0  0  0  0  0  0  0  0
    3.2136  -14.7309   26.4870 C   0  0  0  0  0  0  0  0  0  0  0  0
    4.4113  -15.8502   26.8937 Cl  0  0  0  0  0  0  0  0  0  0  0  0
  1  2  1  0
  3  2  1  1
  3  4  1  0
  4  5  1  0
  5  6  1  0
  6  7  1  1
  7  8  1  0
  8  9  2  0
  8 10  1  0
 10 11  2  0
 11 12  1  0
 12 13  1  0
 13 14  2  0
 14 15  1  0
  6  3  1  0
 14 10  1  0
M  END
>  <inchikey>  (1737) 
RZVDGBRZIMLUOB-UHFFFAOYSA-N

>  <tags>  (1737) 
fragmenstein_placed,CpKRS_FrAncestor_bulkdock_iter2

>  <ref_pdb>  (1737) 
x0421a

>  <energy_score>  (1737) 
-16.943466

>  <distance_score>  (1737) 
0.531785

>  <HIPPO Pose ID>  (1737) 
61902

>  <ref_mols>  (1737) 
x0421c

>  <smiles>  (1737) 
CC[C@H]1CC[C@@H]1NC(=O)c1nocc1Cl

>  <HIPPO Compound ID>  (1737) 
29413

>  <alias>  (1737) 
RZVDGBRZIMLUOB-XPUUQOCRSA-N-P13

>  <subsites>  (1737) 


>  <placement_batch>  (1737) 
CpKRS_FrAncestor_bulkdock_iter2

>  <name>  (1737) 
RZVDGBRZIMLUOB-XPUUQOCRSA-N-P13

$$$$
DBUWXSPFDDRZSU-XPUUQOCRSA-N-P12
     RDKit          3D

 15 16  0  0  0  0  0  0  0  0999 V2000
    5.8267   -7.2121   24.2795 C   0  0  0  0  0  0  0  0  0  0  0  0
    6.0283   -8.7022   24.1098 C   0  0  0  0  0  0  0  0  0  0  0  0
    4.8275   -9.3525   23.4476 C   0  0  1  0  0  0  0  0  0  0  0  0
    4.7893   -9.1768   21.9064 C   0  0  0  0  0  0  0  0  0  0  0  0
    4.3863  -10.6515   21.8023 C   0  0  0  0  0  0  0  0  0  0  0  0
    4.9765  -10.8731   23.1968 C   0  0  2  0  0  0  0  0  0  0  0  0
    4.1659  -11.7525   24.0123 N   0  0  0  0  0  0  0  0  0  0  0  0
    4.4984  -13.1158   24.6494 C   0  0  0  0  0  0  0  0  0  0  0  0
    5.4501  -13.7812   24.5549 O   0  0  0  0  0  0  0  0  0  0  0  0
    3.3204  -13.5582   25.4387 C   0  0  0  0  0  0  0  0  0  0  0  0
    2.1506  -12.9121   25.2729 N   0  0  0  0  0  0  0  0  0  0  0  0
    1.0179  -13.5521   26.2990 S   0  0  0  0  0  0  0  0  0  0  0  0
    2.0382  -14.7238   26.9923 C   0  0  0  0  0  0  0  0  0  0  0  0
    3.2695  -14.6227   26.3933 C   0  0  0  0  0  0  0  0  0  0  0  0
    4.7135  -15.7422   26.8330 Br  0  0  0  0  0  0  0  0  0  0  0  0
  1  2  1  0
  3  2  1  6
  3  4  1  0
  4  5  1  0
  5  6  1  0
  6  7  1  1
  7  8  1  0
  8  9  2  0
  8 10  1  0
 10 11  2  0
 11 12  1  0
 12 13  1  0
 13 14  2  0
 14 15  1  0
  6  3  1  0
 14 10  1  0
M  END
>  <inchikey>  (1738) 
DBUWXSPFDDRZSU-UHFFFAOYSA-N

>  <tags>  (1738) 
fragmenstein_placed,CpKRS_FrAncestor_bulkdock_iter2

>  <ref_pdb>  (1738) 
x0421a

>  <energy_score>  (1738) 
-20.057881

>  <distance_score>  (1738) 
0.566745

>  <HIPPO Pose ID>  (1738) 
61905

>  <ref_mols>  (1738) 
x0421b

>  <smiles>  (1738) 
CC[C@H]1CC[C@@H]1NC(=O)c1nscc1Br

>  <HIPPO Compound ID>  (1738) 
29415

>  <alias>  (1738) 
DBUWXSPFDDRZSU-XPUUQOCRSA-N-P12

>  <subsites>  (1738) 


>  <placement_batch>  (1738) 
CpKRS_FrAncestor_bulkdock_iter2

>  <name>  (1738) 
DBUWXSPFDDRZSU-XPUUQOCRSA-N-P12

$$$$
RQCACGGTBYXROH-IUCAKERBSA-N-P14
     RDKit          3D

 15 16  0  0  0  0  0  0  0  0999 V2000
    6.1156   -8.3808   24.1436 C   0  0  0  0  0  0  0  0  0  0  0  0
    4.7176   -8.4523   23.5732 C   0  0  0  0  0  0  0  0  0  0  0  0
    4.3614   -9.7754   22.9151 C   0  0  1  0  0  0  0  0  0  0  0  0
    5.0681  -10.0575   21.5592 C   0  0  0  0  0  0  0  0  0  0  0  0
    4.9368  -11.5527   21.9033 C   0  0  0  0  0  0  0  0  0  0  0  0
    4.9448  -11.1376   23.3884 C   0  0  2  0  0  0  0  0  0  0  0  0
    4.1129  -11.9746   24.2269 N   0  0  0  0  0  0  0  0  0  0  0  0
    4.4603  -13.2434   25.0374 C   0  0  0  0  0  0  0  0  0  0  0  0
    5.4523  -13.8563   25.0947 O   0  0  0  0  0  0  0  0  0  0  0  0
    3.2819  -13.6216   25.8729 C   0  0  0  0  0  0  0  0  0  0  0  0
    2.1385  -12.9246   25.7409 N   0  0  0  0  0  0  0  0  0  0  0  0
    1.0013  -13.5330   26.7654 S   0  0  0  0  0  0  0  0  0  0  0  0
    1.9973  -14.7158   27.4705 C   0  0  0  0  0  0  0  0  0  0  0  0
    3.2491  -14.6721   26.8828 C   0  0  0  0  0  0  0  0  0  0  0  0
    4.3701  -15.5798   27.2606 C   0  0  0  0  0  0  0  0  0  0  0  0
  1  2  1  0
  3  2  1  1
  3  4  1  0
  4  5  1  0
  5  6  1  0
  6  7  1  1
  7  8  1  0
  8  9  2  0
  8 10  1  0
 10 11  2  0
 11 12  1  0
 12 13  1  0
 13 14  2  0
 14 15  1  0
  6  3  1  0
 14 10  1  0
M  END
>  <inchikey>  (1739) 
RQCACGGTBYXROH-UHFFFAOYSA-N

>  <tags>  (1739) 
fragmenstein_placed,CpKRS_FrAncestor_bulkdock_iter2

>  <ref_pdb>  (1739) 
x0421a

>  <energy_score>  (1739) 
-45.765565

>  <distance_score>  (1739) 
0.616208

>  <HIPPO Pose ID>  (1739) 
61911

>  <ref_mols>  (1739) 
x0421d

>  <smiles>  (1739) 
CC[C@H]1CC[C@@H]1NC(=O)c1nscc1C

>  <HIPPO Compound ID>  (1739) 
29416

>  <alias>  (1739) 
RQCACGGTBYXROH-IUCAKERBSA-N-P14

>  <subsites>  (1739) 


>  <placement_batch>  (1739) 
CpKRS_FrAncestor_bulkdock_iter2

>  <name>  (1739) 
RQCACGGTBYXROH-IUCAKERBSA-N-P14

$$$$
ITWRJTCZSICFBP-YUMQZZPRSA-N-P45
     RDKit          3D

 14 15  0  0  0  0  0  0  0  0999 V2000
    5.3648   -9.0138   21.8207 C   0  0  0  0  0  0  0  0  0  0  0  0
    5.5259   -8.9133   23.3249 C   0  0  0  0  0  0  0  0  0  0  0  0
    4.5436   -9.7786   24.1276 C   0  0  1  0  0  0  0  0  0  0  0  0
    3.0489   -9.5357   23.8254 C   0  0  0  0  0  0  0  0  0  0  0  0
    3.0785  -10.7955   22.9418 C   0  0  0  0  0  0  0  0  0  0  0  0
    4.3055  -11.2761   23.7365 C   0  0  2  0  0  0  0  0  0  0  0  0
    3.8777  -12.1895   24.7908 N   0  0  0  0  0  0  0  0  0  0  0  0
    4.5638  -13.4414   25.3693 C   0  0  0  0  0  0  0  0  0  0  0  0
    5.6131  -13.8966   25.1491 O   0  0  0  0  0  0  0  0  0  0  0  0
    3.6423  -14.0851   26.2892 C   0  0  0  0  0  0  0  0  0  0  0  0
    3.7495  -15.2249   27.0549 C   0  0  0  0  0  0  0  0  0  0  0  0
    2.6369  -15.3793   27.8445 N   0  0  0  0  0  0  0  0  0  0  0  0
    1.8852  -14.3636   27.4983 C   0  0  0  0  0  0  0  0  0  0  0  0
    2.4009  -13.5383   26.5479 O   0  0  0  0  0  0  0  0  0  0  0  0
  1  2  1  0
  3  2  1  6
  3  4  1  0
  4  5  1  0
  5  6  1  0
  6  7  1  1
  7  8  1  0
  8  9  2  0
  8 10  1  0
 10 11  2  0
 11 12  1  0
 12 13  2  0
 13 14  1  0
  6  3  1  0
 14 10  1  0
M  END
>  <inchikey>  (1740) 
ITWRJTCZSICFBP-UHFFFAOYSA-N

>  <tags>  (1740) 
fragmenstein_placed,CpKRS_FrAncestor_bulkdock_iter2

>  <ref_pdb>  (1740) 
x0421a

>  <energy_score>  (1740) 
-9.480479

>  <distance_score>  (1740) 
0.85555

>  <HIPPO Pose ID>  (1740) 
61912

>  <ref_mols>  (1740) 
x0502a

>  <smiles>  (1740) 
CC[C@H]1CC[C@@H]1NC(=O)c1cnco1

>  <HIPPO Compound ID>  (1740) 
29417

>  <alias>  (1740) 
ITWRJTCZSICFBP-YUMQZZPRSA-N-P45

>  <subsites>  (1740) 


>  <placement_batch>  (1740) 
CpKRS_FrAncestor_bulkdock_iter2

>  <name>  (1740) 
ITWRJTCZSICFBP-YUMQZZPRSA-N-P45

$$$$
BHIBBGIYQBOSJV-XYPYZODXSA-N-P45
     RDKit          3D

 17 18  0  0  0  0  0  0  0  0999 V2000
    6.3729   -6.3505   25.0721 C   0  0  0  0  0  0  0  0  0  0  0  0
    5.9915   -7.3065   24.4577 C   0  0  0  0  0  0  0  0  0  0  0  0
    5.5334   -8.5544   23.8378 C   0  0  1  0  0  0  0  0  0  0  0  0
    4.3330   -9.1031   24.6205 C   0  0  0  0  0  0  0  0  0  0  0  0
    3.2793   -9.7589   23.7412 C   0  0  0  0  0  0  0  0  0  0  0  0
    3.9222  -10.6049   22.6382 C   0  0  2  0  0  0  0  0  0  0  0  0
    4.7268  -11.8022   23.1665 C   0  0  0  0  0  0  0  0  0  0  0  0
    3.9893  -12.6110   24.0930 N   0  0  0  0  0  0  0  0  0  0  0  0
    4.4783  -13.5750   25.1873 C   0  0  0  0  0  0  0  0  0  0  0  0
    5.5559  -13.9238   25.4595 O   0  0  0  0  0  0  0  0  0  0  0  0
    3.3579  -14.0003   26.0295 C   0  0  0  0  0  0  0  0  0  0  0  0
    3.3440  -14.9907   26.9940 C   0  0  0  0  0  0  0  0  0  0  0  0
    2.0935  -15.0118   27.6668 C   0  0  0  0  0  0  0  0  0  0  0  0
    1.1743  -14.1274   27.2809 N   0  0  0  0  0  0  0  0  0  0  0  0
    1.8239  -13.2426   26.0371 S   0  0  0  0  0  0  0  0  0  0  0  0
    4.8013   -9.7177   21.7290 C   0  0  0  0  0  0  0  0  0  0  0  0
    5.1993   -8.3809   22.3617 C   0  0  0  0  0  0  0  0  0  0  0  0
  1  2  3  0
  3  2  1  1
  3  4  1  0
  4  5  1  0
  5  6  1  0
  6  7  1  1
  7  8  1  0
  8  9  1  0
  9 10  2  0
  9 11  1  0
 11 12  2  0
 12 13  1  0
 13 14  2  0
 14 15  1  0
  6 16  1  0
 16 17  1  0
 17  3  1  0
 15 11  1  0
M  END
>  <inchikey>  (1741) 
BHIBBGIYQBOSJV-UHFFFAOYSA-N

>  <tags>  (1741) 
fragmenstein_placed,CpKRS_FrAncestor_bulkdock_iter2

>  <ref_pdb>  (1741) 
x0421a

>  <energy_score>  (1741) 
-23.342687

>  <distance_score>  (1741) 
0.398945

>  <HIPPO Pose ID>  (1741) 
61918

>  <ref_mols>  (1741) 
x0502a

>  <smiles>  (1741) 
C#C[C@H]1CC[C@H](CNC(=O)c2ccns2)CC1

>  <HIPPO Compound ID>  (1741) 
30503

>  <alias>  (1741) 
BHIBBGIYQBOSJV-XYPYZODXSA-N-P45

>  <subsites>  (1741) 


>  <placement_batch>  (1741) 
CpKRS_FrAncestor_bulkdock_iter2

>  <name>  (1741) 
BHIBBGIYQBOSJV-XYPYZODXSA-N-P45

$$$$
PHDDXVRZPCZFSC-XYPYZODXSA-N-P44
     RDKit          3D

 17 18  0  0  0  0  0  0  0  0999 V2000
  -12.2968  -18.1566   40.6820 C   0  0  0  0  0  0  0  0  0  0  0  0
  -12.8231  -17.7875   41.6964 C   0  0  0  0  0  0  0  0  0  0  0  0
  -13.4469  -17.3386   42.9583 C   0  0  1  0  0  0  0  0  0  0  0  0
  -12.4581  -17.4642   44.1288 C   0  0  0  0  0  0  0  0  0  0  0  0
  -11.6384  -16.1919   44.3222 C   0  0  0  0  0  0  0  0  0  0  0  0
  -12.5253  -14.9687   44.6286 C   0  0  2  0  0  0  0  0  0  0  0  0
  -12.5660  -14.6498   46.1308 C   0  0  0  0  0  0  0  0  0  0  0  0
  -11.3434  -14.0597   46.6074 N   0  0  0  0  0  0  0  0  0  0  0  0
  -10.7003  -12.6918   46.2917 C   0  0  0  0  0  0  0  0  0  0  0  0
  -11.0214  -11.8620   45.5377 O   0  0  0  0  0  0  0  0  0  0  0  0
   -9.5528  -12.4534   47.1631 C   0  0  0  0  0  0  0  0  0  0  0  0
   -8.9528  -13.1205   48.2135 C   0  0  0  0  0  0  0  0  0  0  0  0
   -7.9108  -12.3848   48.7263 N   0  0  0  0  0  0  0  0  0  0  0  0
   -7.8867  -11.3238   47.9559 C   0  0  0  0  0  0  0  0  0  0  0  0
   -8.8440  -11.2821   46.9957 O   0  0  0  0  0  0  0  0  0  0  0  0
  -13.9637  -15.1428   44.1081 C   0  0  0  0  0  0  0  0  0  0  0  0
  -13.9844  -15.9070   42.7931 C   0  0  0  0  0  0  0  0  0  0  0  0
  1  2  3  0
  3  2  1  6
  3  4  1  0
  4  5  1  0
  5  6  1  0
  6  7  1  1
  7  8  1  0
  8  9  1  0
  9 10  2  0
  9 11  1  0
 11 12  2  0
 12 13  1  0
 13 14  2  0
 14 15  1  0
  6 16  1  0
 16 17  1  0
 17  3  1  0
 15 11  1  0
M  END
>  <inchikey>  (1742) 
PHDDXVRZPCZFSC-UHFFFAOYSA-N

>  <tags>  (1742) 
fragmenstein_placed,CpKRS_FrAncestor_bulkdock_iter2

>  <ref_pdb>  (1742) 
x0421a

>  <energy_score>  (1742) 
-3.974637

>  <distance_score>  (1742) 
0.64244

>  <HIPPO Pose ID>  (1742) 
61922

>  <ref_mols>  (1742) 
x0502b

>  <smiles>  (1742) 
C#C[C@H]1CC[C@H](CNC(=O)c2cnco2)CC1

>  <HIPPO Compound ID>  (1742) 
30504

>  <alias>  (1742) 
PHDDXVRZPCZFSC-XYPYZODXSA-N-P44

>  <subsites>  (1742) 


>  <placement_batch>  (1742) 
CpKRS_FrAncestor_bulkdock_iter2

>  <name>  (1742) 
PHDDXVRZPCZFSC-XYPYZODXSA-N-P44

$$$$
ZWRVROVUJFNFNC-XYPYZODXSA-N-P45
     RDKit          3D

 17 18  0  0  0  0  0  0  0  0999 V2000
    6.2321   -6.2499   25.1018 C   0  0  0  0  0  0  0  0  0  0  0  0
    6.0454   -7.1897   24.3822 C   0  0  0  0  0  0  0  0  0  0  0  0
    5.8715   -8.4631   23.6738 C   0  0  1  0  0  0  0  0  0  0  0  0
    5.2334   -9.4800   24.6255 C   0  0  0  0  0  0  0  0  0  0  0  0
    3.8228   -9.8562   24.2175 C   0  0  0  0  0  0  0  0  0  0  0  0
    3.8266  -10.4904   22.8220 C   0  0  2  0  0  0  0  0  0  0  0  0
    4.3022  -11.9556   22.8140 C   0  0  0  0  0  0  0  0  0  0  0  0
    3.7946  -12.7477   23.8975 N   0  0  0  0  0  0  0  0  0  0  0  0
    4.5343  -13.4989   25.0193 C   0  0  0  0  0  0  0  0  0  0  0  0
    5.6749  -13.6572   25.1971 O   0  0  0  0  0  0  0  0  0  0  0  0
    3.5882  -14.0444   25.9922 C   0  0  0  0  0  0  0  0  0  0  0  0
    3.8537  -15.0088   26.9487 C   0  0  0  0  0  0  0  0  0  0  0  0
    2.8500  -15.2565   27.8657 N   0  0  0  0  0  0  0  0  0  0  0  0
    1.8301  -14.4835   27.5812 C   0  0  0  0  0  0  0  0  0  0  0  0
    1.9749  -13.4900   26.1918 S   0  0  0  0  0  0  0  0  0  0  0  0
    4.6772   -9.6624   21.8242 C   0  0  0  0  0  0  0  0  0  0  0  0
    5.0892   -8.2987   22.3720 C   0  0  0  0  0  0  0  0  0  0  0  0
  1  2  3  0
  3  2  1  1
  3  4  1  0
  4  5  1  0
  5  6  1  0
  6  7  1  1
  7  8  1  0
  8  9  1  0
  9 10  2  0
  9 11  1  0
 11 12  2  0
 12 13  1  0
 13 14  2  0
 14 15  1  0
  6 16  1  0
 16 17  1  0
 17  3  1  0
 15 11  1  0
M  END
>  <inchikey>  (1743) 
ZWRVROVUJFNFNC-UHFFFAOYSA-N

>  <tags>  (1743) 
fragmenstein_placed,CpKRS_FrAncestor_bulkdock_iter2

>  <ref_pdb>  (1743) 
x0421a

>  <energy_score>  (1743) 
-48.784926

>  <distance_score>  (1743) 
0.429276

>  <HIPPO Pose ID>  (1743) 
61924

>  <ref_mols>  (1743) 
x0502a

>  <smiles>  (1743) 
C#C[C@H]1CC[C@H](CNC(=O)c2cncs2)CC1

>  <HIPPO Compound ID>  (1743) 
30505

>  <alias>  (1743) 
ZWRVROVUJFNFNC-XYPYZODXSA-N-P45

>  <subsites>  (1743) 


>  <placement_batch>  (1743) 
CpKRS_FrAncestor_bulkdock_iter2

>  <name>  (1743) 
ZWRVROVUJFNFNC-XYPYZODXSA-N-P45

$$$$
UFRSTIQOTJOLDQ-WDEREUQCSA-N-P11
     RDKit          3D

 18 20  0  0  0  0  0  0  0  0999 V2000
    6.5035   -7.1527   24.0743 C   0  0  0  0  0  0  0  0  0  0  0  0
    5.7970   -7.8892   23.4421 C   0  0  0  0  0  0  0  0  0  0  0  0
    4.8556   -8.8031   22.7907 C   0  0  1  0  0  0  0  0  0  0  0  0
    5.4688   -9.7381   21.7507 C   0  0  0  0  0  0  0  0  0  0  0  0
    4.9418  -11.1377   22.0688 C   0  0  0  0  0  0  0  0  0  0  0  0
    3.7756  -10.9207   23.0268 C   0  0  1  0  0  0  0  0  0  0  0  0
    3.4960  -12.0205   23.8923 N   0  0  0  0  0  0  0  0  0  0  0  0
    4.4421  -12.9251   24.6923 C   0  0  0  0  0  0  0  0  0  0  0  0
    5.6054  -12.9687   24.7146 O   0  0  0  0  0  0  0  0  0  0  0  0
    3.6301  -13.7645   25.5870 C   0  0  0  0  0  0  0  0  0  0  0  0
    4.1399  -14.7715   26.4698 C   0  0  0  0  0  0  0  0  0  0  0  0
    3.0452  -15.1841   27.1616 C   0  0  0  0  0  0  0  0  0  0  0  0
    2.0018  -14.4959   26.6507 N   0  0  0  0  0  0  0  0  0  0  0  0
    2.2842  -13.5880   25.7275 N   0  0  0  0  0  0  0  0  0  0  0  0
    0.7457  -14.7483   27.3128 C   0  0  0  0  0  0  0  0  0  0  0  0
    1.0905  -16.0236   28.1013 C   0  0  0  0  0  0  0  0  0  0  0  0
    2.6279  -16.0672   28.2523 C   0  0  0  0  0  0  0  0  0  0  0  0
    4.2118   -9.7087   23.8297 C   0  0  0  0  0  0  0  0  0  0  0  0
  1  2  3  0
  3  2  1  1
  3  4  1  0
  4  5  1  0
  5  6  1  0
  6  7  1  1
  7  8  1  0
  8  9  2  0
  8 10  1  0
 10 11  1  0
 11 12  2  0
 12 13  1  0
 13 14  1  0
 13 15  1  0
 15 16  1  0
 16 17  1  0
  6 18  1  0
 18  3  1  0
 14 10  2  0
 17 12  1  0
M  END
>  <inchikey>  (1744) 
UFRSTIQOTJOLDQ-UHFFFAOYSA-N

>  <tags>  (1744) 
fragmenstein_placed,CpKRS_FrAncestor_bulkdock_iter2

>  <ref_pdb>  (1744) 
x0421a

>  <energy_score>  (1744) 
-10.766478

>  <distance_score>  (1744) 
0.708748

>  <HIPPO Pose ID>  (1744) 
61927

>  <ref_mols>  (1744) 
x0421a

>  <smiles>  (1744) 
C#C[C@H]1CC[C@@H](NC(=O)c2cc3n(n2)CCC3)C1

>  <HIPPO Compound ID>  (1744) 
29657

>  <alias>  (1744) 
UFRSTIQOTJOLDQ-WDEREUQCSA-N-P11

>  <subsites>  (1744) 


>  <placement_batch>  (1744) 
CpKRS_FrAncestor_bulkdock_iter2

>  <name>  (1744) 
UFRSTIQOTJOLDQ-WDEREUQCSA-N-P11

$$$$
VOBXMRASXBUHNA-QWHCGFSZSA-N-P13
     RDKit          3D

 19 20  0  0  0  0  0  0  0  0999 V2000
    6.4999   -6.9993   24.2853 C   0  0  0  0  0  0  0  0  0  0  0  0
    5.8463   -7.7696   23.6377 C   0  0  0  0  0  0  0  0  0  0  0  0
    4.9544   -8.6815   22.9224 C   0  0  1  0  0  0  0  0  0  0  0  0
    5.6336   -9.6266   21.9312 C   0  0  0  0  0  0  0  0  0  0  0  0
    5.0502  -11.0162   22.2027 C   0  0  0  0  0  0  0  0  0  0  0  0
    3.7907  -10.7430   23.0125 C   0  0  1  0  0  0  0  0  0  0  0  0
    3.2798  -11.8333   23.7768 N   0  0  0  0  0  0  0  0  0  0  0  0
    4.0080  -12.8720   24.6460 C   0  0  0  0  0  0  0  0  0  0  0  0
    5.1462  -13.0502   24.8148 O   0  0  0  0  0  0  0  0  0  0  0  0
    2.9652  -13.6500   25.4114 C   0  0  0  0  0  0  0  0  0  0  0  0
    3.3374  -14.4788   26.4543 C   0  0  0  0  0  0  0  0  0  0  0  0
    2.3250  -15.0212   27.2333 C   0  0  0  0  0  0  0  0  0  0  0  0
    0.9932  -14.7469   26.9215 C   0  0  0  0  0  0  0  0  0  0  0  0
    0.6927  -13.9678   25.8099 C   0  0  0  0  0  0  0  0  0  0  0  0
   -0.7405  -13.7933   25.3460 C   0  0  0  0  0  0  0  0  0  0  0  0
   -0.8920  -14.2273   23.8850 C   0  0  0  0  0  0  0  0  0  0  0  0
   -1.2242  -12.3578   25.5319 C   0  0  0  0  0  0  0  0  0  0  0  0
    1.6640  -13.3859   25.0731 N   0  0  0  0  0  0  0  0  0  0  0  0
    4.2083   -9.5816   23.8964 C   0  0  0  0  0  0  0  0  0  0  0  0
  1  2  3  0
  3  2  1  1
  3  4  1  0
  4  5  1  0
  5  6  1  0
  6  7  1  1
  7  8  1  0
  8  9  2  0
  8 10  1  0
 10 11  2  0
 11 12  1  0
 12 13  2  0
 13 14  1  0
 14 15  1  0
 15 16  1  0
 15 17  1  0
 14 18  2  0
  6 19  1  0
 19  3  1  0
 18 10  1  0
M  END
>  <inchikey>  (1745) 
VOBXMRASXBUHNA-UHFFFAOYSA-N

>  <tags>  (1745) 
fragmenstein_placed,CpKRS_FrAncestor_bulkdock_iter2

>  <ref_pdb>  (1745) 
x0421a

>  <energy_score>  (1745) 
-9.908318

>  <distance_score>  (1745) 
0.792811

>  <HIPPO Pose ID>  (1745) 
61937

>  <ref_mols>  (1745) 
x0421c

>  <smiles>  (1745) 
C#C[C@H]1CC[C@@H](NC(=O)c2cccc(C(C)C)n2)C1

>  <HIPPO Compound ID>  (1745) 
29659

>  <alias>  (1745) 
VOBXMRASXBUHNA-QWHCGFSZSA-N-P13

>  <subsites>  (1745) 


>  <placement_batch>  (1745) 
CpKRS_FrAncestor_bulkdock_iter2

>  <name>  (1745) 
VOBXMRASXBUHNA-QWHCGFSZSA-N-P13

$$$$
ODQZQCPJQCITOK-WCQYABFASA-N-P13
     RDKit          3D

 18 19  0  0  0  0  0  0  0  0999 V2000
    6.2998   -6.6715   24.3983 C   0  0  0  0  0  0  0  0  0  0  0  0
    5.7225   -7.5874   23.8822 C   0  0  0  0  0  0  0  0  0  0  0  0
    4.9700   -8.7568   23.4393 C   0  0  1  0  0  0  0  0  0  0  0  0
    5.1451   -9.1622   21.9869 C   0  0  0  0  0  0  0  0  0  0  0  0
    4.5657  -10.5745   21.9961 C   0  0  0  0  0  0  0  0  0  0  0  0
    5.0903  -11.1760   23.2876 C   0  0  2  0  0  0  0  0  0  0  0  0
    4.2124  -12.0897   23.9533 N   0  0  0  0  0  0  0  0  0  0  0  0
    4.5208  -13.3542   24.7718 C   0  0  0  0  0  0  0  0  0  0  0  0
    5.5318  -13.8969   24.9703 O   0  0  0  0  0  0  0  0  0  0  0  0
    3.2596  -13.8313   25.4452 C   0  0  0  0  0  0  0  0  0  0  0  0
    3.3347  -14.8165   26.4172 C   0  0  0  0  0  0  0  0  0  0  0  0
    2.1676  -15.1590   27.0830 C   0  0  0  0  0  0  0  0  0  0  0  0
    0.9771  -14.5141   26.7523 C   0  0  0  0  0  0  0  0  0  0  0  0
    0.9755  -13.5375   25.7588 C   0  0  0  0  0  0  0  0  0  0  0  0
   -0.3224  -12.8736   25.3625 C   0  0  0  0  0  0  0  0  0  0  0  0
   -0.1512  -11.5879   24.5630 C   0  0  0  0  0  0  0  0  0  0  0  0
    2.1024  -13.1924   25.0944 N   0  0  0  0  0  0  0  0  0  0  0  0
    5.4072   -9.9951   24.2025 C   0  0  0  0  0  0  0  0  0  0  0  0
  1  2  3  0
  3  2  1  1
  3  4  1  0
  4  5  1  0
  5  6  1  0
  6  7  1  1
  7  8  1  0
  8  9  2  0
  8 10  1  0
 10 11  2  0
 11 12  1  0
 12 13  2  0
 13 14  1  0
 14 15  1  0
 15 16  1  0
 14 17  2  0
  6 18  1  0
 18  3  1  0
 17 10  1  0
M  END
>  <inchikey>  (1746) 
ODQZQCPJQCITOK-UHFFFAOYSA-N

>  <tags>  (1746) 
fragmenstein_placed,CpKRS_FrAncestor_bulkdock_iter2

>  <ref_pdb>  (1746) 
x0421a

>  <energy_score>  (1746) 
-0.53725

>  <distance_score>  (1746) 
0.63993

>  <HIPPO Pose ID>  (1746) 
61941

>  <ref_mols>  (1746) 
x0421c

>  <smiles>  (1746) 
C#C[C@H]1CC[C@@H](NC(=O)c2cccc(CC)n2)C1

>  <HIPPO Compound ID>  (1746) 
29660

>  <alias>  (1746) 
ODQZQCPJQCITOK-WCQYABFASA-N-P13

>  <subsites>  (1746) 


>  <placement_batch>  (1746) 
CpKRS_FrAncestor_bulkdock_iter2

>  <name>  (1746) 
ODQZQCPJQCITOK-WCQYABFASA-N-P13

$$$$
QFHZTUYEPYIKNY-NWDGAFQWSA-N-P14
     RDKit          3D

 17 18  0  0  0  0  0  0  0  0999 V2000
    1.6834   -9.1585   23.3791 C   0  0  0  0  0  0  0  0  0  0  0  0
    2.7402   -9.1736   22.8070 C   0  0  0  0  0  0  0  0  0  0  0  0
    4.0277   -9.2846   22.0823 C   0  0  1  0  0  0  0  0  0  0  0  0
    5.1907   -8.7103   22.8781 C   0  0  0  0  0  0  0  0  0  0  0  0
    5.4895   -9.7918   23.9026 C   0  0  0  0  0  0  0  0  0  0  0  0
    5.0869  -11.1142   23.2330 C   0  0  1  0  0  0  0  0  0  0  0  0
    4.2441  -11.8774   24.1067 N   0  0  0  0  0  0  0  0  0  0  0  0
    4.5451  -13.1325   24.9376 C   0  0  0  0  0  0  0  0  0  0  0  0
    5.5454  -13.7040   25.1063 O   0  0  0  0  0  0  0  0  0  0  0  0
    3.2953  -13.5378   25.6750 C   0  0  0  0  0  0  0  0  0  0  0  0
    3.3915  -14.4634   26.7047 C   0  0  0  0  0  0  0  0  0  0  0  0
    2.2547  -14.7166   27.4537 C   0  0  0  0  0  0  0  0  0  0  0  0
    1.0704  -14.0634   27.1256 C   0  0  0  0  0  0  0  0  0  0  0  0
    1.0375  -13.1793   26.0538 C   0  0  0  0  0  0  0  0  0  0  0  0
   -0.2553  -12.5801   25.5909 C   0  0  0  0  0  0  0  0  0  0  0  0
    2.1401  -12.8778   25.3392 N   0  0  0  0  0  0  0  0  0  0  0  0
    4.4151  -10.7491   21.9173 C   0  0  0  0  0  0  0  0  0  0  0  0
  1  2  3  0
  3  2  1  1
  3  4  1  0
  4  5  1  0
  5  6  1  0
  6  7  1  1
  7  8  1  0
  8  9  2  0
  8 10  1  0
 10 11  2  0
 11 12  1  0
 12 13  2  0
 13 14  1  0
 14 15  1  0
 14 16  2  0
  6 17  1  0
 17  3  1  0
 16 10  1  0
M  END
>  <inchikey>  (1747) 
QFHZTUYEPYIKNY-UHFFFAOYSA-N

>  <tags>  (1747) 
fragmenstein_placed,CpKRS_FrAncestor_bulkdock_iter2

>  <ref_pdb>  (1747) 
x0421a

>  <energy_score>  (1747) 
-5.723006

>  <distance_score>  (1747) 
0.647363

>  <HIPPO Pose ID>  (1747) 
61950

>  <ref_mols>  (1747) 
x0421d

>  <smiles>  (1747) 
C#C[C@H]1CC[C@@H](NC(=O)c2cccc(C)n2)C1

>  <HIPPO Compound ID>  (1747) 
29662

>  <alias>  (1747) 
QFHZTUYEPYIKNY-NWDGAFQWSA-N-P14

>  <subsites>  (1747) 


>  <placement_batch>  (1747) 
CpKRS_FrAncestor_bulkdock_iter2

>  <name>  (1747) 
QFHZTUYEPYIKNY-NWDGAFQWSA-N-P14

$$$$
AVESRFKUVFKGFH-WDEREUQCSA-N-P11
     RDKit          3D

 18 20  0  0  0  0  0  0  0  0999 V2000
    6.5416   -7.1339   24.0944 C   0  0  0  0  0  0  0  0  0  0  0  0
    5.8341   -7.8610   23.4525 C   0  0  0  0  0  0  0  0  0  0  0  0
    4.8884   -8.7605   22.7877 C   0  0  1  0  0  0  0  0  0  0  0  0
    5.4970   -9.6946   21.7441 C   0  0  0  0  0  0  0  0  0  0  0  0
    4.9660  -11.0930   22.0582 C   0  0  0  0  0  0  0  0  0  0  0  0
    3.7924  -10.8713   23.0051 C   0  0  1  0  0  0  0  0  0  0  0  0
    3.4990  -11.9711   23.8643 N   0  0  0  0  0  0  0  0  0  0  0  0
    4.4320  -12.8850   24.6660 C   0  0  0  0  0  0  0  0  0  0  0  0
    5.5943  -12.9379   24.6955 O   0  0  0  0  0  0  0  0  0  0  0  0
    3.5970  -13.7062   25.5401 C   0  0  0  0  0  0  0  0  0  0  0  0
    4.0524  -14.7109   26.3821 C   0  0  0  0  0  0  0  0  0  0  0  0
    2.9466  -15.1027   27.0193 N   0  0  0  0  0  0  0  0  0  0  0  0
    1.8820  -14.3654   26.6062 C   0  0  0  0  0  0  0  0  0  0  0  0
    2.2114  -13.4978   25.6891 N   0  0  0  0  0  0  0  0  0  0  0  0
    0.6677  -14.7294   27.3408 C   0  0  0  0  0  0  0  0  0  0  0  0
    1.1071  -16.0509   28.0179 C   0  0  0  0  0  0  0  0  0  0  0  0
    2.6391  -16.0502   28.0588 C   0  0  0  0  0  0  0  0  0  0  0  0
    4.2274   -9.6649   23.8165 C   0  0  0  0  0  0  0  0  0  0  0  0
  1  2  3  0
  3  2  1  1
  3  4  1  0
  4  5  1  0
  5  6  1  0
  6  7  1  1
  7  8  1  0
  8  9  2  0
  8 10  1  0
 10 11  2  0
 11 12  1  0
 12 13  1  0
 13 14  2  0
 13 15  1  0
 15 16  1  0
 16 17  1  0
  6 18  1  0
 18  3  1  0
 14 10  1  0
 17 12  1  0
M  END
>  <inchikey>  (1748) 
AVESRFKUVFKGFH-UHFFFAOYSA-N

>  <tags>  (1748) 
fragmenstein_placed,CpKRS_FrAncestor_bulkdock_iter2

>  <ref_pdb>  (1748) 
x0421a

>  <energy_score>  (1748) 
-7.37945

>  <distance_score>  (1748) 
0.680746

>  <HIPPO Pose ID>  (1748) 
61955

>  <ref_mols>  (1748) 
x0421a

>  <smiles>  (1748) 
C#C[C@H]1CC[C@@H](NC(=O)c2cn3c(n2)CCC3)C1

>  <HIPPO Compound ID>  (1748) 
29680

>  <alias>  (1748) 
AVESRFKUVFKGFH-WDEREUQCSA-N-P11

>  <subsites>  (1748) 


>  <placement_batch>  (1748) 
CpKRS_FrAncestor_bulkdock_iter2

>  <name>  (1748) 
AVESRFKUVFKGFH-WDEREUQCSA-N-P11

$$$$
RTYBEOHPSQOJQR-WDEREUQCSA-N-P12
     RDKit          3D

 18 20  0  0  0  0  0  0  0  0999 V2000
    1.6276   -9.0812   22.9297 C   0  0  0  0  0  0  0  0  0  0  0  0
    2.7657   -9.2096   22.5649 C   0  0  0  0  0  0  0  0  0  0  0  0
    4.1461   -9.4449   22.0779 C   0  0  1  0  0  0  0  0  0  0  0  0
    5.1902   -8.7748   22.9630 C   0  0  0  0  0  0  0  0  0  0  0  0
    5.2643   -9.6906   24.1734 C   0  0  0  0  0  0  0  0  0  0  0  0
    5.0340  -11.0947   23.6081 C   0  0  1  0  0  0  0  0  0  0  0  0
    4.1985  -11.9190   24.4345 N   0  0  0  0  0  0  0  0  0  0  0  0
    4.2691  -13.4254   24.7389 C   0  0  0  0  0  0  0  0  0  0  0  0
    5.0597  -14.2207   24.4296 O   0  0  0  0  0  0  0  0  0  0  0  0
    3.1538  -13.7867   25.5818 C   0  0  0  0  0  0  0  0  0  0  0  0
    3.1396  -14.5932   26.7145 C   0  0  0  0  0  0  0  0  0  0  0  0
    1.8780  -14.6777   27.2821 N   0  0  0  0  0  0  0  0  0  0  0  0
    1.1329  -13.9645   26.4818 C   0  0  0  0  0  0  0  0  0  0  0  0
    1.8496  -13.4578   25.4433 N   0  0  0  0  0  0  0  0  0  0  0  0
    1.0230  -12.8518   24.4229 C   0  0  0  0  0  0  0  0  0  0  0  0
   -0.3971  -13.2598   24.8598 C   0  0  0  0  0  0  0  0  0  0  0  0
   -0.2976  -13.6337   26.3597 C   0  0  0  0  0  0  0  0  0  0  0  0
    4.4909  -10.9270   22.1883 C   0  0  0  0  0  0  0  0  0  0  0  0
  1  2  3  0
  3  2  1  1
  3  4  1  0
  4  5  1  0
  5  6  1  0
  6  7  1  1
  7  8  1  0
  8  9  2  0
  8 10  1  0
 10 11  2  0
 11 12  1  0
 12 13  2  0
 13 14  1  0
 14 15  1  0
 15 16  1  0
 16 17  1  0
  6 18  1  0
 18  3  1  0
 14 10  1  0
 17 13  1  0
M  END
>  <inchikey>  (1749) 
RTYBEOHPSQOJQR-UHFFFAOYSA-N

>  <tags>  (1749) 
fragmenstein_placed,CpKRS_FrAncestor_bulkdock_iter2

>  <ref_pdb>  (1749) 
x0421a

>  <energy_score>  (1749) 
-3.452326

>  <distance_score>  (1749) 
0.555579

>  <HIPPO Pose ID>  (1749) 
61960

>  <ref_mols>  (1749) 
x0421b

>  <smiles>  (1749) 
C#C[C@H]1CC[C@@H](NC(=O)c2cnc3n2CCC3)C1

>  <HIPPO Compound ID>  (1749) 
29681

>  <alias>  (1749) 
RTYBEOHPSQOJQR-WDEREUQCSA-N-P12

>  <subsites>  (1749) 


>  <placement_batch>  (1749) 
CpKRS_FrAncestor_bulkdock_iter2

>  <name>  (1749) 
RTYBEOHPSQOJQR-WDEREUQCSA-N-P12

$$$$
MUQYSUKIQPFFSI-VHSXEESVSA-N-P12
     RDKit          3D

 17 18  0  0  0  0  0  0  0  0999 V2000
    1.6318   -9.1101   22.9560 C   0  0  0  0  0  0  0  0  0  0  0  0
    2.7700   -9.1343   22.5708 C   0  0  0  0  0  0  0  0  0  0  0  0
    4.1513   -9.2506   22.0507 C   0  0  1  0  0  0  0  0  0  0  0  0
    5.1886   -8.6728   23.0066 C   0  0  0  0  0  0  0  0  0  0  0  0
    5.3297   -9.7424   24.0779 C   0  0  0  0  0  0  0  0  0  0  0  0
    5.0539  -11.0620   23.3526 C   0  0  1  0  0  0  0  0  0  0  0  0
    4.1494  -11.9124   24.0698 N   0  0  0  0  0  0  0  0  0  0  0  0
    4.3642  -13.3043   24.6863 C   0  0  0  0  0  0  0  0  0  0  0  0
    5.2850  -14.0135   24.6437 O   0  0  0  0  0  0  0  0  0  0  0  0
    3.1239  -13.6701   25.4858 C   0  0  0  0  0  0  0  0  0  0  0  0
    2.0235  -12.9037   25.1845 N   0  0  0  0  0  0  0  0  0  0  0  0
    0.9007  -13.1239   25.9060 C   0  0  0  0  0  0  0  0  0  0  0  0
    0.8133  -14.0572   26.9186 C   0  0  0  0  0  0  0  0  0  0  0  0
    1.9358  -14.8279   27.2033 C   0  0  0  0  0  0  0  0  0  0  0  0
    3.1133  -14.6486   26.4754 C   0  0  0  0  0  0  0  0  0  0  0  0
    4.5769  -15.7395   26.9501 Br  0  0  0  0  0  0  0  0  0  0  0  0
    4.5497  -10.7155   21.9578 C   0  0  0  0  0  0  0  0  0  0  0  0
  1  2  3  0
  3  2  1  1
  3  4  1  0
  4  5  1  0
  5  6  1  0
  6  7  1  1
  7  8  1  0
  8  9  2  0
  8 10  1  0
 10 11  2  0
 11 12  1  0
 12 13  2  0
 13 14  1  0
 14 15  2  0
 15 16  1  0
  6 17  1  0
 17  3  1  0
 15 10  1  0
M  END
>  <inchikey>  (1750) 
MUQYSUKIQPFFSI-UHFFFAOYSA-N

>  <tags>  (1750) 
fragmenstein_placed,CpKRS_FrAncestor_bulkdock_iter2

>  <ref_pdb>  (1750) 
x0421a

>  <energy_score>  (1750) 
-14.26307

>  <distance_score>  (1750) 
0.637076

>  <HIPPO Pose ID>  (1750) 
61964

>  <ref_mols>  (1750) 
x0421b

>  <smiles>  (1750) 
C#C[C@H]1CC[C@@H](NC(=O)c2ncccc2Br)C1

>  <HIPPO Compound ID>  (1750) 
29689

>  <alias>  (1750) 
MUQYSUKIQPFFSI-VHSXEESVSA-N-P12

>  <subsites>  (1750) 


>  <placement_batch>  (1750) 
CpKRS_FrAncestor_bulkdock_iter2

>  <name>  (1750) 
MUQYSUKIQPFFSI-VHSXEESVSA-N-P12

$$$$
KGSMDKPBXJVFMK-NWDGAFQWSA-N-P12
     RDKit          3D

 17 18  0  0  0  0  0  0  0  0999 V2000
    1.6341   -9.1068   22.9586 C   0  0  0  0  0  0  0  0  0  0  0  0
    2.7704   -9.1615   22.5710 C   0  0  0  0  0  0  0  0  0  0  0  0
    4.1472   -9.3197   22.0500 C   0  0  1  0  0  0  0  0  0  0  0  0
    5.1967   -8.7320   22.9856 C   0  0  0  0  0  0  0  0  0  0  0  0
    5.3194   -9.7742   24.0850 C   0  0  0  0  0  0  0  0  0  0  0  0
    5.0549  -11.1114   23.3877 C   0  0  1  0  0  0  0  0  0  0  0  0
    4.1889  -11.9679   24.1430 N   0  0  0  0  0  0  0  0  0  0  0  0
    4.4540  -13.3410   24.7879 C   0  0  0  0  0  0  0  0  0  0  0  0
    5.3939  -14.0277   24.7422 O   0  0  0  0  0  0  0  0  0  0  0  0
    3.2176  -13.7407   25.5806 C   0  0  0  0  0  0  0  0  0  0  0  0
    2.1143  -12.9724   25.3088 N   0  0  0  0  0  0  0  0  0  0  0  0
    1.0050  -13.2088   26.0410 C   0  0  0  0  0  0  0  0  0  0  0  0
    0.9339  -14.1707   27.0263 C   0  0  0  0  0  0  0  0  0  0  0  0
    2.0578  -14.9556   27.2689 C   0  0  0  0  0  0  0  0  0  0  0  0
    3.2350  -14.7576   26.5383 C   0  0  0  0  0  0  0  0  0  0  0  0
    4.4284  -15.6185   26.8159 C   0  0  0  0  0  0  0  0  0  0  0  0
    4.5153  -10.7965   21.9968 C   0  0  0  0  0  0  0  0  0  0  0  0
  1  2  3  0
  3  2  1  1
  3  4  1  0
  4  5  1  0
  5  6  1  0
  6  7  1  1
  7  8  1  0
  8  9  2  0
  8 10  1  0
 10 11  2  0
 11 12  1  0
 12 13  2  0
 13 14  1  0
 14 15  2  0
 15 16  1  0
  6 17  1  0
 17  3  1  0
 15 10  1  0
M  END
>  <inchikey>  (1751) 
KGSMDKPBXJVFMK-UHFFFAOYSA-N

>  <tags>  (1751) 
fragmenstein_placed,CpKRS_FrAncestor_bulkdock_iter2

>  <ref_pdb>  (1751) 
x0421a

>  <energy_score>  (1751) 
-24.595745

>  <distance_score>  (1751) 
0.643418

>  <HIPPO Pose ID>  (1751) 
61968

>  <ref_mols>  (1751) 
x0421b

>  <smiles>  (1751) 
C#C[C@H]1CC[C@@H](NC(=O)c2ncccc2C)C1

>  <HIPPO Compound ID>  (1751) 
29690

>  <alias>  (1751) 
KGSMDKPBXJVFMK-NWDGAFQWSA-N-P12

>  <subsites>  (1751) 


>  <placement_batch>  (1751) 
CpKRS_FrAncestor_bulkdock_iter2

>  <name>  (1751) 
KGSMDKPBXJVFMK-NWDGAFQWSA-N-P12

$$$$
JDVUAXMERPCTBX-WCQYABFASA-N-P13
     RDKit          3D

 18 19  0  0  0  0  0  0  0  0999 V2000
    6.2093   -7.1145   24.2602 C   0  0  0  0  0  0  0  0  0  0  0  0
    5.6060   -7.8563   23.5342 C   0  0  0  0  0  0  0  0  0  0  0  0
    4.8009   -8.7402   22.6790 C   0  0  1  0  0  0  0  0  0  0  0  0
    5.6359   -9.7858   21.9422 C   0  0  0  0  0  0  0  0  0  0  0  0
    5.3830  -11.0837   22.6941 C   0  0  0  0  0  0  0  0  0  0  0  0
    3.9128  -10.9752   23.0530 C   0  0  1  0  0  0  0  0  0  0  0  0
    3.4333  -11.8913   24.0419 N   0  0  0  0  0  0  0  0  0  0  0  0
    4.0878  -13.1519   24.6400 C   0  0  0  0  0  0  0  0  0  0  0  0
    5.1510  -13.5995   24.4782 O   0  0  0  0  0  0  0  0  0  0  0  0
    3.0801  -13.7758   25.6065 C   0  0  0  0  0  0  0  0  0  0  0  0
    1.8403  -13.1780   25.5534 N   0  0  0  0  0  0  0  0  0  0  0  0
    0.8882  -13.6345   26.3867 C   0  0  0  0  0  0  0  0  0  0  0  0
    1.1004  -14.6542   27.2870 C   0  0  0  0  0  0  0  0  0  0  0  0
    2.3512  -15.2623   27.3182 C   0  0  0  0  0  0  0  0  0  0  0  0
    3.3822  -14.8294   26.4717 C   0  0  0  0  0  0  0  0  0  0  0  0
    4.7127  -15.5273   26.5504 C   0  0  0  0  0  0  0  0  0  0  0  0
    4.8161  -16.6641   25.5444 C   0  0  0  0  0  0  0  0  0  0  0  0
    3.7845   -9.5274   23.5179 C   0  0  0  0  0  0  0  0  0  0  0  0
  1  2  3  0
  3  2  1  1
  3  4  1  0
  4  5  1  0
  5  6  1  0
  6  7  1  1
  7  8  1  0
  8  9  2  0
  8 10  1  0
 10 11  2  0
 11 12  1  0
 12 13  2  0
 13 14  1  0
 14 15  2  0
 15 16  1  0
 16 17  1  0
  6 18  1  0
 18  3  1  0
 15 10  1  0
M  END
>  <inchikey>  (1752) 
JDVUAXMERPCTBX-UHFFFAOYSA-N

>  <tags>  (1752) 
fragmenstein_placed,CpKRS_FrAncestor_bulkdock_iter2

>  <ref_pdb>  (1752) 
x0421a

>  <energy_score>  (1752) 
-4.407446

>  <distance_score>  (1752) 
0.752984

>  <HIPPO Pose ID>  (1752) 
61973

>  <ref_mols>  (1752) 
x0421c

>  <smiles>  (1752) 
C#C[C@H]1CC[C@@H](NC(=O)c2ncccc2CC)C1

>  <HIPPO Compound ID>  (1752) 
29691

>  <alias>  (1752) 
JDVUAXMERPCTBX-WCQYABFASA-N-P13

>  <subsites>  (1752) 


>  <placement_batch>  (1752) 
CpKRS_FrAncestor_bulkdock_iter2

>  <name>  (1752) 
JDVUAXMERPCTBX-WCQYABFASA-N-P13

$$$$
SHGCCPTYUYWEMG-VHSXEESVSA-N-P13
     RDKit          3D

 17 18  0  0  0  0  0  0  0  0999 V2000
    6.2341   -7.0919   24.2633 C   0  0  0  0  0  0  0  0  0  0  0  0
    5.6233   -7.8307   23.5406 C   0  0  0  0  0  0  0  0  0  0  0  0
    4.8075   -8.7121   22.6938 C   0  0  1  0  0  0  0  0  0  0  0  0
    5.6294   -9.7567   21.9409 C   0  0  0  0  0  0  0  0  0  0  0  0
    5.3677  -11.0611   22.6774 C   0  0  0  0  0  0  0  0  0  0  0  0
    3.9036  -10.9395   23.0596 C   0  0  1  0  0  0  0  0  0  0  0  0
    3.4337  -11.8637   24.0459 N   0  0  0  0  0  0  0  0  0  0  0  0
    4.0968  -13.1245   24.6323 C   0  0  0  0  0  0  0  0  0  0  0  0
    5.1598  -13.5659   24.4616 O   0  0  0  0  0  0  0  0  0  0  0  0
    3.1082  -13.7619   25.5964 C   0  0  0  0  0  0  0  0  0  0  0  0
    1.8591  -13.1701   25.5731 N   0  0  0  0  0  0  0  0  0  0  0  0
    0.9277  -13.6452   26.4210 C   0  0  0  0  0  0  0  0  0  0  0  0
    1.1691  -14.6753   27.3053 C   0  0  0  0  0  0  0  0  0  0  0  0
    2.4266  -15.2764   27.3019 C   0  0  0  0  0  0  0  0  0  0  0  0
    3.4250  -14.8248   26.4358 C   0  0  0  0  0  0  0  0  0  0  0  0
    4.9443  -15.6274   26.5067 Cl  0  0  0  0  0  0  0  0  0  0  0  0
    3.8012   -9.4980   23.5456 C   0  0  0  0  0  0  0  0  0  0  0  0
  1  2  3  0
  3  2  1  1
  3  4  1  0
  4  5  1  0
  5  6  1  0
  6  7  1  1
  7  8  1  0
  8  9  2  0
  8 10  1  0
 10 11  2  0
 11 12  1  0
 12 13  2  0
 13 14  1  0
 14 15  2  0
 15 16  1  0
  6 17  1  0
 17  3  1  0
 15 10  1  0
M  END
>  <inchikey>  (1753) 
SHGCCPTYUYWEMG-UHFFFAOYSA-N

>  <tags>  (1753) 
fragmenstein_placed,CpKRS_FrAncestor_bulkdock_iter2

>  <ref_pdb>  (1753) 
x0421a

>  <energy_score>  (1753) 
-6.457055

>  <distance_score>  (1753) 
0.747613

>  <HIPPO Pose ID>  (1753) 
61977

>  <ref_mols>  (1753) 
x0421c

>  <smiles>  (1753) 
C#C[C@H]1CC[C@@H](NC(=O)c2ncccc2Cl)C1

>  <HIPPO Compound ID>  (1753) 
29692

>  <alias>  (1753) 
SHGCCPTYUYWEMG-VHSXEESVSA-N-P13

>  <subsites>  (1753) 


>  <placement_batch>  (1753) 
CpKRS_FrAncestor_bulkdock_iter2

>  <name>  (1753) 
SHGCCPTYUYWEMG-VHSXEESVSA-N-P13

$$$$
XMOKGCBCHPHECB-VHSXEESVSA-N-P12
     RDKit          3D

 17 18  0  0  0  0  0  0  0  0999 V2000
    1.6539   -9.1019   22.9337 C   0  0  0  0  0  0  0  0  0  0  0  0
    2.7897   -9.1790   22.5482 C   0  0  0  0  0  0  0  0  0  0  0  0
    4.1669   -9.3729   22.0384 C   0  0  1  0  0  0  0  0  0  0  0  0
    5.2139   -8.7172   22.9311 C   0  0  0  0  0  0  0  0  0  0  0  0
    5.3228   -9.6711   24.1084 C   0  0  0  0  0  0  0  0  0  0  0  0
    5.0820  -11.0571   23.5047 C   0  0  1  0  0  0  0  0  0  0  0  0
    4.2409  -11.8783   24.3242 N   0  0  0  0  0  0  0  0  0  0  0  0
    4.4545  -13.3070   24.8625 C   0  0  0  0  0  0  0  0  0  0  0  0
    5.3795  -14.0110   24.7886 O   0  0  0  0  0  0  0  0  0  0  0  0
    3.2252  -13.7160   25.6248 C   0  0  0  0  0  0  0  0  0  0  0  0
    2.0990  -12.9760   25.3594 N   0  0  0  0  0  0  0  0  0  0  0  0
    1.0089  -13.2494   26.1112 C   0  0  0  0  0  0  0  0  0  0  0  0
    0.9849  -14.2201   27.0978 C   0  0  0  0  0  0  0  0  0  0  0  0
    2.1372  -14.9722   27.3261 C   0  0  0  0  0  0  0  0  0  0  0  0
    3.2801  -14.7207   26.5789 C   0  0  0  0  0  0  0  0  0  0  0  0
    4.3927  -15.4234   26.8384 F   0  0  0  0  0  0  0  0  0  0  0  0
    4.5355  -10.8511   22.0941 C   0  0  0  0  0  0  0  0  0  0  0  0
  1  2  3  0
  3  2  1  1
  3  4  1  0
  4  5  1  0
  5  6  1  0
  6  7  1  1
  7  8  1  0
  8  9  2  0
  8 10  1  0
 10 11  2  0
 11 12  1  0
 12 13  2  0
 13 14  1  0
 14 15  2  0
 15 16  1  0
  6 17  1  0
 17  3  1  0
 15 10  1  0
M  END
>  <inchikey>  (1754) 
XMOKGCBCHPHECB-UHFFFAOYSA-N

>  <tags>  (1754) 
fragmenstein_placed,CpKRS_FrAncestor_bulkdock_iter2

>  <ref_pdb>  (1754) 
x0421a

>  <energy_score>  (1754) 
-6.142858

>  <distance_score>  (1754) 
0.615175

>  <HIPPO Pose ID>  (1754) 
61980

>  <ref_mols>  (1754) 
x0421b

>  <smiles>  (1754) 
C#C[C@H]1CC[C@@H](NC(=O)c2ncccc2F)C1

>  <HIPPO Compound ID>  (1754) 
29693

>  <alias>  (1754) 
XMOKGCBCHPHECB-VHSXEESVSA-N-P12

>  <subsites>  (1754) 


>  <placement_batch>  (1754) 
CpKRS_FrAncestor_bulkdock_iter2

>  <name>  (1754) 
XMOKGCBCHPHECB-VHSXEESVSA-N-P12

$$$$
KSZQMTYUTMCRDI-AOOOYVTPSA-N-P44
     RDKit          3D

 16 17  0  0  0  0  0  0  0  0999 V2000
  -11.2887  -16.9400   42.7807 C   0  0  0  0  0  0  0  0  0  0  0  0
  -12.2725  -17.0300   43.4590 C   0  0  0  0  0  0  0  0  0  0  0  0
  -13.4627  -16.9373   44.3191 C   0  0  2  0  0  0  0  0  0  0  0  0
  -13.9251  -15.4767   44.3636 C   0  0  0  0  0  0  0  0  0  0  0  0
  -12.8866  -14.5687   45.0284 C   0  0  0  0  0  0  0  0  0  0  0  0
  -12.4782  -15.0599   46.4244 C   0  0  2  0  0  0  0  0  0  0  0  0
  -11.3635  -14.2857   46.9329 N   0  0  0  0  0  0  0  0  0  0  0  0
  -11.1537  -12.7583   47.0050 C   0  0  0  0  0  0  0  0  0  0  0  0
  -11.8763  -11.8829   46.7374 O   0  0  0  0  0  0  0  0  0  0  0  0
   -9.8331  -12.4630   47.5432 C   0  0  0  0  0  0  0  0  0  0  0  0
   -8.9579  -13.1229   48.3819 C   0  0  0  0  0  0  0  0  0  0  0  0
   -7.8455  -12.3535   48.6212 N   0  0  0  0  0  0  0  0  0  0  0  0
   -8.0641  -11.2782   47.9019 C   0  0  0  0  0  0  0  0  0  0  0  0
   -9.2431  -11.2592   47.2283 O   0  0  0  0  0  0  0  0  0  0  0  0
  -12.1268  -16.5512   46.4521 C   0  0  0  0  0  0  0  0  0  0  0  0
  -13.1547  -17.4292   45.7376 C   0  0  0  0  0  0  0  0  0  0  0  0
  1  2  3  0
  3  2  1  6
  3  4  1  0
  4  5  1  0
  5  6  1  0
  6  7  1  6
  7  8  1  0
  8  9  2  0
  8 10  1  0
 10 11  2  0
 11 12  1  0
 12 13  2  0
 13 14  1  0
  6 15  1  0
 15 16  1  0
 16  3  1  0
 14 10  1  0
M  END
>  <inchikey>  (1755) 
KSZQMTYUTMCRDI-UHFFFAOYSA-N

>  <tags>  (1755) 
fragmenstein_placed,CpKRS_FrAncestor_bulkdock_iter2

>  <ref_pdb>  (1755) 
x0421a

>  <energy_score>  (1755) 
-14.062166

>  <distance_score>  (1755) 
0.800049

>  <HIPPO Pose ID>  (1755) 
61984

>  <ref_mols>  (1755) 
x0502b

>  <smiles>  (1755) 
C#C[C@H]1CC[C@@H](NC(=O)c2cnco2)CC1

>  <HIPPO Compound ID>  (1755) 
29683

>  <alias>  (1755) 
KSZQMTYUTMCRDI-AOOOYVTPSA-N-P44

>  <subsites>  (1755) 


>  <placement_batch>  (1755) 
CpKRS_FrAncestor_bulkdock_iter2

>  <name>  (1755) 
KSZQMTYUTMCRDI-AOOOYVTPSA-N-P44

$$$$
VSNSNNURIMUXQZ-AOOOYVTPSA-N-P44
     RDKit          3D

 16 17  0  0  0  0  0  0  0  0999 V2000
  -11.2824  -16.9259   42.7718 C   0  0  0  0  0  0  0  0  0  0  0  0
  -12.2631  -17.0455   43.4501 C   0  0  0  0  0  0  0  0  0  0  0  0
  -13.4503  -16.9976   44.3184 C   0  0  2  0  0  0  0  0  0  0  0  0
  -13.9521  -15.5511   44.3893 C   0  0  0  0  0  0  0  0  0  0  0  0
  -12.9346  -14.6263   45.0624 C   0  0  0  0  0  0  0  0  0  0  0  0
  -12.4990  -15.1310   46.4457 C   0  0  2  0  0  0  0  0  0  0  0  0
  -11.4023  -14.3281   46.9456 N   0  0  0  0  0  0  0  0  0  0  0  0
  -11.2907  -12.8057   47.1552 C   0  0  0  0  0  0  0  0  0  0  0  0
  -12.0891  -11.9658   47.0313 O   0  0  0  0  0  0  0  0  0  0  0  0
   -9.9444  -12.4797   47.6056 C   0  0  0  0  0  0  0  0  0  0  0  0
   -9.1371  -13.0972   48.5412 C   0  0  0  0  0  0  0  0  0  0  0  0
   -7.9164  -12.4917   48.7780 N   0  0  0  0  0  0  0  0  0  0  0  0
   -7.8001  -11.4444   47.9930 C   0  0  0  0  0  0  0  0  0  0  0  0
   -9.1293  -11.1105   46.9658 S   0  0  0  0  0  0  0  0  0  0  0  0
  -12.1064  -16.6112   46.4457 C   0  0  0  0  0  0  0  0  0  0  0  0
  -13.1184  -17.5040   45.7267 C   0  0  0  0  0  0  0  0  0  0  0  0
  1  2  3  0
  3  2  1  6
  3  4  1  0
  4  5  1  0
  5  6  1  0
  6  7  1  6
  7  8  1  0
  8  9  2  0
  8 10  1  0
 10 11  2  0
 11 12  1  0
 12 13  2  0
 13 14  1  0
  6 15  1  0
 15 16  1  0
 16  3  1  0
 14 10  1  0
M  END
>  <inchikey>  (1756) 
VSNSNNURIMUXQZ-UHFFFAOYSA-N

>  <tags>  (1756) 
fragmenstein_placed,CpKRS_FrAncestor_bulkdock_iter2

>  <ref_pdb>  (1756) 
x0421a

>  <energy_score>  (1756) 
-42.331431

>  <distance_score>  (1756) 
0.81678

>  <HIPPO Pose ID>  (1756) 
61990

>  <ref_mols>  (1756) 
x0502b

>  <smiles>  (1756) 
C#C[C@H]1CC[C@@H](NC(=O)c2cncs2)CC1

>  <HIPPO Compound ID>  (1756) 
29685

>  <alias>  (1756) 
VSNSNNURIMUXQZ-AOOOYVTPSA-N-P44

>  <subsites>  (1756) 


>  <placement_batch>  (1756) 
CpKRS_FrAncestor_bulkdock_iter2

>  <name>  (1756) 
VSNSNNURIMUXQZ-AOOOYVTPSA-N-P44

$$$$
YPSSXVLACWIHHA-GXSJLCMTSA-N-P12
     RDKit          3D

 18 20  0  0  0  0  0  0  0  0999 V2000
    1.7086   -9.1558   22.9179 C   0  0  0  0  0  0  0  0  0  0  0  0
    2.8484   -9.1371   22.5374 C   0  0  0  0  0  0  0  0  0  0  0  0
    4.2392   -9.2013   22.0352 C   0  0  1  0  0  0  0  0  0  0  0  0
    5.2388   -8.6007   23.0172 C   0  0  0  0  0  0  0  0  0  0  0  0
    5.4013   -9.6752   24.0829 C   0  0  0  0  0  0  0  0  0  0  0  0
    5.1318  -10.9977   23.3596 C   0  0  1  0  0  0  0  0  0  0  0  0
    4.1583  -11.8035   24.0328 N   0  0  0  0  0  0  0  0  0  0  0  0
    4.2705  -13.2189   24.6288 C   0  0  0  0  0  0  0  0  0  0  0  0
    5.1501  -13.9840   24.5989 O   0  0  0  0  0  0  0  0  0  0  0  0
    2.9926  -13.5227   25.3017 C   0  0  0  0  0  0  0  0  0  0  0  0
    1.9448  -12.6828   25.1672 N   0  0  0  0  0  0  0  0  0  0  0  0
    0.9389  -13.1844   25.9693 O   0  0  0  0  0  0  0  0  0  0  0  0
    1.3599  -14.3246   26.5583 C   0  0  0  0  0  0  0  0  0  0  0  0
    2.6299  -14.5993   26.1375 C   0  0  0  0  0  0  0  0  0  0  0  0
    3.4227  -15.8451   26.5322 C   0  0  0  0  0  0  0  0  0  0  0  0
    3.7136  -16.0499   27.9939 C   0  0  0  0  0  0  0  0  0  0  0  0
    4.8286  -15.7527   27.0310 C   0  0  0  0  0  0  0  0  0  0  0  0
    4.6980  -10.6487   21.9410 C   0  0  0  0  0  0  0  0  0  0  0  0
  1  2  3  0
  3  2  1  1
  3  4  1  0
  4  5  1  0
  5  6  1  0
  6  7  1  1
  7  8  1  0
  8  9  2  0
  8 10  1  0
 10 11  2  0
 11 12  1  0
 12 13  1  0
 13 14  2  0
 14 15  1  0
 15 16  1  0
 16 17  1  0
  6 18  1  0
 18  3  1  0
 14 10  1  0
 17 15  1  0
M  END
>  <inchikey>  (1757) 
YPSSXVLACWIHHA-UHFFFAOYSA-N

>  <tags>  (1757) 
fragmenstein_placed,CpKRS_FrAncestor_bulkdock_iter2

>  <ref_pdb>  (1757) 
x0421a

>  <energy_score>  (1757) 
-5.067215

>  <distance_score>  (1757) 
0.735994

>  <HIPPO Pose ID>  (1757) 
62012

>  <ref_mols>  (1757) 
x0421b

>  <smiles>  (1757) 
C#C[C@H]1CC[C@@H](NC(=O)c2nocc2C2CC2)C1

>  <HIPPO Compound ID>  (1757) 
29698

>  <alias>  (1757) 
YPSSXVLACWIHHA-GXSJLCMTSA-N-P12

>  <subsites>  (1757) 


>  <placement_batch>  (1757) 
CpKRS_FrAncestor_bulkdock_iter2

>  <name>  (1757) 
YPSSXVLACWIHHA-GXSJLCMTSA-N-P12

$$$$
STWAUAKOVOXABY-WPRPVWTQSA-N-P11
     RDKit          3D

 16 18  0  0  0  0  0  0  0  0999 V2000
    5.5910   -8.6251   21.8893 C   0  0  0  0  0  0  0  0  0  0  0  0
    5.0405  -10.0094   21.6261 C   0  0  0  0  0  0  0  0  0  0  0  0
    4.0197  -10.4571   22.6198 C   0  0  2  0  0  0  0  0  0  0  0  0
    3.5372   -9.5900   23.7629 C   0  0  0  0  0  0  0  0  0  0  0  0
    4.4645  -10.7385   24.0192 C   0  0  1  0  0  0  0  0  0  0  0  0
    4.0032  -11.8517   24.7322 N   0  0  0  0  0  0  0  0  0  0  0  0
    4.7118  -13.1605   25.1049 C   0  0  0  0  0  0  0  0  0  0  0  0
    5.8167  -13.4929   24.9457 O   0  0  0  0  0  0  0  0  0  0  0  0
    3.7464  -13.9839   25.8486 C   0  0  0  0  0  0  0  0  0  0  0  0
    4.0826  -15.1273   26.6391 C   0  0  0  0  0  0  0  0  0  0  0  0
    2.9288  -15.4126   27.2957 C   0  0  0  0  0  0  0  0  0  0  0  0
    1.9949  -14.5614   26.8165 N   0  0  0  0  0  0  0  0  0  0  0  0
    2.4368  -13.6212   25.9919 N   0  0  0  0  0  0  0  0  0  0  0  0
    0.7342  -14.6223   27.5242 C   0  0  0  0  0  0  0  0  0  0  0  0
    1.1383  -15.4364   28.7727 C   0  0  0  0  0  0  0  0  0  0  0  0
    2.3800  -16.2598   28.3524 C   0  0  0  0  0  0  0  0  0  0  0  0
  1  2  1  0
  3  2  1  6
  3  4  1  0
  4  5  1  0
  5  6  1  1
  6  7  1  0
  7  8  2  0
  7  9  1  0
  9 10  1  0
 10 11  2  0
 11 12  1  0
 12 13  1  0
 12 14  1  0
 14 15  1  0
 15 16  1  0
  5  3  1  0
 13  9  2  0
 16 11  1  0
M  END
>  <inchikey>  (1758) 
STWAUAKOVOXABY-UHFFFAOYSA-N

>  <tags>  (1758) 
fragmenstein_placed,CpKRS_FrAncestor_bulkdock_iter2

>  <ref_pdb>  (1758) 
x0421a

>  <energy_score>  (1758) 
-7.094322

>  <distance_score>  (1758) 
0.816111

>  <HIPPO Pose ID>  (1758) 
62015

>  <ref_mols>  (1758) 
x0421a

>  <smiles>  (1758) 
CC[C@H]1C[C@@H]1NC(=O)c1cc2n(n1)CCC2

>  <HIPPO Compound ID>  (1758) 
30506

>  <alias>  (1758) 
STWAUAKOVOXABY-WPRPVWTQSA-N-P11

>  <subsites>  (1758) 


>  <placement_batch>  (1758) 
CpKRS_FrAncestor_bulkdock_iter2

>  <name>  (1758) 
STWAUAKOVOXABY-WPRPVWTQSA-N-P11

$$$$
CHHHMHOBPPKCDO-WDSKDSINSA-N-P14
     RDKit          3D

 14 15  0  0  0  0  0  0  0  0999 V2000
    5.1717   -8.2700   21.5708 C   0  0  0  0  0  0  0  0  0  0  0  0
    5.2725   -8.9283   22.9220 C   0  0  0  0  0  0  0  0  0  0  0  0
    4.3895  -10.1291   22.9377 C   0  0  1  0  0  0  0  0  0  0  0  0
    4.6627  -11.2854   22.0055 C   0  0  0  0  0  0  0  0  0  0  0  0
    4.9112  -11.4235   23.4700 C   0  0  2  0  0  0  0  0  0  0  0  0
    4.0882  -12.2278   24.2582 N   0  0  0  0  0  0  0  0  0  0  0  0
    4.4269  -13.4277   25.1506 C   0  0  0  0  0  0  0  0  0  0  0  0
    5.4353  -13.9874   25.3129 O   0  0  0  0  0  0  0  0  0  0  0  0
    3.2185  -13.7527   25.9255 C   0  0  0  0  0  0  0  0  0  0  0  0
    3.2075  -14.6393   27.0484 C   0  0  0  0  0  0  0  0  0  0  0  0
    1.9975  -14.5542   27.6759 C   0  0  0  0  0  0  0  0  0  0  0  0
    1.6056  -15.3346   29.3406 Br  0  0  0  0  0  0  0  0  0  0  0  0
    0.9432  -13.5752   26.7979 S   0  0  0  0  0  0  0  0  0  0  0  0
    2.0567  -13.1197   25.6671 N   0  0  0  0  0  0  0  0  0  0  0  0
  1  2  1  0
  3  2  1  6
  3  4  1  0
  4  5  1  0
  5  6  1  1
  6  7  1  0
  7  8  2  0
  7  9  1  0
  9 10  1  0
 10 11  2  0
 11 12  1  0
 11 13  1  0
 13 14  1  0
  5  3  1  0
 14  9  2  0
M  END
>  <inchikey>  (1759) 
CHHHMHOBPPKCDO-UHFFFAOYSA-N

>  <tags>  (1759) 
fragmenstein_placed,CpKRS_FrAncestor_bulkdock_iter2

>  <ref_pdb>  (1759) 
x0421a

>  <energy_score>  (1759) 
-20.756219

>  <distance_score>  (1759) 
0.729578

>  <HIPPO Pose ID>  (1759) 
62026

>  <ref_mols>  (1759) 
x0421d

>  <smiles>  (1759) 
CC[C@H]1C[C@@H]1NC(=O)c1cc(Br)sn1

>  <HIPPO Compound ID>  (1759) 
30508

>  <alias>  (1759) 
CHHHMHOBPPKCDO-WDSKDSINSA-N-P14

>  <subsites>  (1759) 


>  <placement_batch>  (1759) 
CpKRS_FrAncestor_bulkdock_iter2

>  <name>  (1759) 
CHHHMHOBPPKCDO-WDSKDSINSA-N-P14

$$$$
LALMHQFYHJSNDM-CBAPKCEASA-N-P12
     RDKit          3D

 15 16  0  0  0  0  0  0  0  0999 V2000
    5.2718   -8.2823   21.7071 C   0  0  0  0  0  0  0  0  0  0  0  0
    5.3205   -8.9088   23.0811 C   0  0  0  0  0  0  0  0  0  0  0  0
    4.4083  -10.0923   23.1125 C   0  0  1  0  0  0  0  0  0  0  0  0
    4.6802  -11.2495   22.1830 C   0  0  0  0  0  0  0  0  0  0  0  0
    4.8810  -11.4035   23.6571 C   0  0  2  0  0  0  0  0  0  0  0  0
    4.0300  -12.2528   24.3760 N   0  0  0  0  0  0  0  0  0  0  0  0
    4.3147  -13.5900   25.0793 C   0  0  0  0  0  0  0  0  0  0  0  0
    5.2828  -14.2367   25.1083 O   0  0  0  0  0  0  0  0  0  0  0  0
    3.1050  -13.9472   25.8850 C   0  0  0  0  0  0  0  0  0  0  0  0
    3.2443  -14.8071   26.9517 C   0  0  0  0  0  0  0  0  0  0  0  0
    2.1569  -14.9184   27.7961 C   0  0  0  0  0  0  0  0  0  0  0  0
    2.3133  -15.8601   29.2277 Cl  0  0  0  0  0  0  0  0  0  0  0  0
    0.9731  -14.2309   27.5393 C   0  0  0  0  0  0  0  0  0  0  0  0
    0.9171  -13.4252   26.4214 C   0  0  0  0  0  0  0  0  0  0  0  0
    1.9612  -13.2597   25.5858 N   0  0  0  0  0  0  0  0  0  0  0  0
  1  2  1  0
  3  2  1  6
  3  4  1  0
  4  5  1  0
  5  6  1  1
  6  7  1  0
  7  8  2  0
  7  9  1  0
  9 10  2  0
 10 11  1  0
 11 12  1  0
 11 13  2  0
 13 14  1  0
 14 15  2  0
  5  3  1  0
 15  9  1  0
M  END
>  <inchikey>  (1760) 
LALMHQFYHJSNDM-UHFFFAOYSA-N

>  <tags>  (1760) 
fragmenstein_placed,CpKRS_FrAncestor_bulkdock_iter2

>  <ref_pdb>  (1760) 
x0421a

>  <energy_score>  (1760) 
-2.359711

>  <distance_score>  (1760) 
0.891843

>  <HIPPO Pose ID>  (1760) 
62028

>  <ref_mols>  (1760) 
x0421b

>  <smiles>  (1760) 
CC[C@H]1C[C@@H]1NC(=O)c1cc(Cl)ccn1

>  <HIPPO Compound ID>  (1760) 
30509

>  <alias>  (1760) 
LALMHQFYHJSNDM-CBAPKCEASA-N-P12

>  <subsites>  (1760) 


>  <placement_batch>  (1760) 
CpKRS_FrAncestor_bulkdock_iter2

>  <name>  (1760) 
LALMHQFYHJSNDM-CBAPKCEASA-N-P12

$$$$
SEDHLMNISKHYDX-YUMQZZPRSA-N-P13
     RDKit          3D

 14 15  0  0  0  0  0  0  0  0999 V2000
    5.6151   -9.2379   21.6373 C   0  0  0  0  0  0  0  0  0  0  0  0
    5.5646   -8.9094   23.1155 C   0  0  0  0  0  0  0  0  0  0  0  0
    4.5074   -9.6351   23.8871 C   0  0  1  0  0  0  0  0  0  0  0  0
    3.0814   -9.6037   23.4227 C   0  0  0  0  0  0  0  0  0  0  0  0
    3.8349  -10.9003   23.4011 C   0  0  2  0  0  0  0  0  0  0  0  0
    3.4757  -11.9156   24.3034 N   0  0  0  0  0  0  0  0  0  0  0  0
    4.2577  -13.1537   24.7790 C   0  0  0  0  0  0  0  0  0  0  0  0
    5.3524  -13.4871   24.5572 O   0  0  0  0  0  0  0  0  0  0  0  0
    3.4103  -13.9037   25.7174 C   0  0  0  0  0  0  0  0  0  0  0  0
    3.8146  -14.9601   26.5644 C   0  0  0  0  0  0  0  0  0  0  0  0
    2.7166  -15.2101   27.3435 C   0  0  0  0  0  0  0  0  0  0  0  0
    2.4880  -16.0881   28.4987 C   0  0  0  0  0  0  0  0  0  0  0  0
    1.6840  -14.4244   26.9398 O   0  0  0  0  0  0  0  0  0  0  0  0
    2.1108  -13.5977   25.9153 N   0  0  0  0  0  0  0  0  0  0  0  0
  1  2  1  0
  3  2  1  6
  3  4  1  0
  4  5  1  0
  5  6  1  1
  6  7  1  0
  7  8  2  0
  7  9  1  0
  9 10  1  0
 10 11  2  0
 11 12  1  0
 11 13  1  0
 13 14  1  0
  5  3  1  0
 14  9  2  0
M  END
>  <inchikey>  (1761) 
SEDHLMNISKHYDX-UHFFFAOYSA-N

>  <tags>  (1761) 
fragmenstein_placed,CpKRS_FrAncestor_bulkdock_iter2

>  <ref_pdb>  (1761) 
x0421a

>  <energy_score>  (1761) 
-2.093618

>  <distance_score>  (1761) 
0.9234

>  <HIPPO Pose ID>  (1761) 
62033

>  <ref_mols>  (1761) 
x0421c

>  <smiles>  (1761) 
CC[C@H]1C[C@@H]1NC(=O)c1cc(C)on1

>  <HIPPO Compound ID>  (1761) 
30510

>  <alias>  (1761) 
SEDHLMNISKHYDX-YUMQZZPRSA-N-P13

>  <subsites>  (1761) 


>  <placement_batch>  (1761) 
CpKRS_FrAncestor_bulkdock_iter2

>  <name>  (1761) 
SEDHLMNISKHYDX-YUMQZZPRSA-N-P13

$$$$
LQNXFFVHYRBSRB-YUMQZZPRSA-N-P12
     RDKit          3D

 14 15  0  0  0  0  0  0  0  0999 V2000
    5.5783   -8.0904   21.9851 C   0  0  0  0  0  0  0  0  0  0  0  0
    4.7130   -9.2917   21.6748 C   0  0  0  0  0  0  0  0  0  0  0  0
    4.8243  -10.3624   22.7078 C   0  0  1  0  0  0  0  0  0  0  0  0
    5.3706  -10.0474   24.0776 C   0  0  0  0  0  0  0  0  0  0  0  0
    3.9159  -10.3742   23.9055 C   0  0  2  0  0  0  0  0  0  0  0  0
    3.4215  -11.5557   24.4887 N   0  0  0  0  0  0  0  0  0  0  0  0
    4.1058  -12.9197   24.7261 C   0  0  0  0  0  0  0  0  0  0  0  0
    5.1614  -13.3027   24.4062 O   0  0  0  0  0  0  0  0  0  0  0  0
    3.2138  -13.7262   25.5742 C   0  0  0  0  0  0  0  0  0  0  0  0
    3.6465  -14.8167   26.3934 C   0  0  0  0  0  0  0  0  0  0  0  0
    2.6375  -15.2168   27.2400 C   0  0  0  0  0  0  0  0  0  0  0  0
    2.6795  -16.2249   28.3204 C   0  0  0  0  0  0  0  0  0  0  0  0
    1.2384  -14.3083   26.8829 S   0  0  0  0  0  0  0  0  0  0  0  0
    1.9198  -13.3938   25.6905 N   0  0  0  0  0  0  0  0  0  0  0  0
  1  2  1  0
  3  2  1  6
  3  4  1  0
  4  5  1  0
  5  6  1  1
  6  7  1  0
  7  8  2  0
  7  9  1  0
  9 10  1  0
 10 11  2  0
 11 12  1  0
 11 13  1  0
 13 14  1  0
  5  3  1  0
 14  9  2  0
M  END
>  <inchikey>  (1762) 
LQNXFFVHYRBSRB-UHFFFAOYSA-N

>  <tags>  (1762) 
fragmenstein_placed,CpKRS_FrAncestor_bulkdock_iter2

>  <ref_pdb>  (1762) 
x0421a

>  <energy_score>  (1762) 
-6.227456

>  <distance_score>  (1762) 
0.68202

>  <HIPPO Pose ID>  (1762) 
62036

>  <ref_mols>  (1762) 
x0421b

>  <smiles>  (1762) 
CC[C@H]1C[C@@H]1NC(=O)c1cc(C)sn1

>  <HIPPO Compound ID>  (1762) 
30511

>  <alias>  (1762) 
LQNXFFVHYRBSRB-YUMQZZPRSA-N-P12

>  <subsites>  (1762) 


>  <placement_batch>  (1762) 
CpKRS_FrAncestor_bulkdock_iter2

>  <name>  (1762) 
LQNXFFVHYRBSRB-YUMQZZPRSA-N-P12

$$$$
ZBCRSMOHAOXTIM-ONGXEEELSA-N-P13
     RDKit          3D

 17 18  0  0  0  0  0  0  0  0999 V2000
    5.5310   -7.8568   22.1667 C   0  0  0  0  0  0  0  0  0  0  0  0
    5.6063   -9.2890   21.6940 C   0  0  0  0  0  0  0  0  0  0  0  0
    5.5352  -10.2946   22.7828 C   0  0  1  0  0  0  0  0  0  0  0  0
    5.9691   -9.9553   24.1844 C   0  0  0  0  0  0  0  0  0  0  0  0
    4.5267  -10.2190   23.8909 C   0  0  2  0  0  0  0  0  0  0  0  0
    3.8909  -11.3815   24.3462 N   0  0  0  0  0  0  0  0  0  0  0  0
    4.4817  -12.7314   24.8162 C   0  0  0  0  0  0  0  0  0  0  0  0
    5.5855  -13.1126   24.8246 O   0  0  0  0  0  0  0  0  0  0  0  0
    3.3444  -13.5346   25.2653 C   0  0  0  0  0  0  0  0  0  0  0  0
    3.3127  -14.7675   25.9477 C   0  0  0  0  0  0  0  0  0  0  0  0
    1.9754  -15.0801   26.0393 C   0  0  0  0  0  0  0  0  0  0  0  0
    1.3011  -14.0738   25.4034 N   0  0  0  0  0  0  0  0  0  0  0  0
   -0.1075  -14.0230   24.9946 C   0  0  0  0  0  0  0  0  0  0  0  0
   -0.3667  -15.1360   23.9633 C   0  0  0  0  0  0  0  0  0  0  0  0
   -0.4924  -12.6762   24.3292 C   0  0  0  0  0  0  0  0  0  0  0  0
   -0.9970  -14.1887   26.2134 C   0  0  0  0  0  0  0  0  0  0  0  0
    2.1010  -13.0814   25.0237 N   0  0  0  0  0  0  0  0  0  0  0  0
  1  2  1  0
  3  2  1  6
  3  4  1  0
  4  5  1  0
  5  6  1  1
  6  7  1  0
  7  8  2  0
  7  9  1  0
  9 10  1  0
 10 11  2  0
 11 12  1  0
 12 13  1  0
 13 14  1  0
 13 15  1  0
 13 16  1  0
 12 17  1  0
  5  3  1  0
 17  9  2  0
M  END
>  <inchikey>  (1763) 
ZBCRSMOHAOXTIM-UHFFFAOYSA-N

>  <tags>  (1763) 
fragmenstein_placed,CpKRS_FrAncestor_bulkdock_iter2

>  <ref_pdb>  (1763) 
x0421a

>  <energy_score>  (1763) 
-8.802446

>  <distance_score>  (1763) 
0.843347

>  <HIPPO Pose ID>  (1763) 
62041

>  <ref_mols>  (1763) 
x0421c

>  <smiles>  (1763) 
CC[C@H]1C[C@@H]1NC(=O)c1ccn(C(C)(C)C)n1

>  <HIPPO Compound ID>  (1763) 
30512

>  <alias>  (1763) 
ZBCRSMOHAOXTIM-ONGXEEELSA-N-P13

>  <subsites>  (1763) 


>  <placement_batch>  (1763) 
CpKRS_FrAncestor_bulkdock_iter2

>  <name>  (1763) 
ZBCRSMOHAOXTIM-ONGXEEELSA-N-P13

$$$$
FYVKFDSRCQCMHD-CBAPKCEASA-N-P12
     RDKit          3D

 14 15  0  0  0  0  0  0  0  0999 V2000
    5.5571   -9.0441   21.5802 C   0  0  0  0  0  0  0  0  0  0  0  0
    5.5230   -8.9518   23.0922 C   0  0  0  0  0  0  0  0  0  0  0  0
    4.3704   -9.6610   23.7309 C   0  0  1  0  0  0  0  0  0  0  0  0
    3.0768   -9.8850   23.0000 C   0  0  0  0  0  0  0  0  0  0  0  0
    3.9750  -11.0535   23.3017 C   0  0  2  0  0  0  0  0  0  0  0  0
    3.5296  -12.0094   24.2269 N   0  0  0  0  0  0  0  0  0  0  0  0
    4.2625  -13.2066   24.8597 C   0  0  0  0  0  0  0  0  0  0  0  0
    5.3755  -13.5440   24.7721 O   0  0  0  0  0  0  0  0  0  0  0  0
    3.2770  -13.8725   25.7301 C   0  0  0  0  0  0  0  0  0  0  0  0
    3.4839  -14.9020   26.6758 C   0  0  0  0  0  0  0  0  0  0  0  0
    2.2706  -15.0586   27.3041 C   0  0  0  0  0  0  0  0  0  0  0  0
    1.4238  -14.1671   26.7180 N   0  0  0  0  0  0  0  0  0  0  0  0
    0.0496  -13.9044   27.0659 C   0  0  0  0  0  0  0  0  0  0  0  0
    1.9845  -13.4751   25.7184 N   0  0  0  0  0  0  0  0  0  0  0  0
  1  2  1  0
  3  2  1  6
  3  4  1  0
  4  5  1  0
  5  6  1  1
  6  7  1  0
  7  8  2  0
  7  9  1  0
  9 10  1  0
 10 11  2  0
 11 12  1  0
 12 13  1  0
 12 14  1  0
  5  3  1  0
 14  9  2  0
M  END
>  <inchikey>  (1764) 
FYVKFDSRCQCMHD-UHFFFAOYSA-N

>  <tags>  (1764) 
fragmenstein_placed,CpKRS_FrAncestor_bulkdock_iter2

>  <ref_pdb>  (1764) 
x0421a

>  <energy_score>  (1764) 
-13.692265

>  <distance_score>  (1764) 
0.78599

>  <HIPPO Pose ID>  (1764) 
62044

>  <ref_mols>  (1764) 
x0421b

>  <smiles>  (1764) 
CC[C@H]1C[C@@H]1NC(=O)c1ccn(C)n1

>  <HIPPO Compound ID>  (1764) 
30513

>  <alias>  (1764) 
FYVKFDSRCQCMHD-CBAPKCEASA-N-P12

>  <subsites>  (1764) 


>  <placement_batch>  (1764) 
CpKRS_FrAncestor_bulkdock_iter2

>  <name>  (1764) 
FYVKFDSRCQCMHD-CBAPKCEASA-N-P12

$$$$
VVAIBTVRBZEKNA-IUCAKERBSA-N-P13
     RDKit          3D

 16 18  0  0  0  0  0  0  0  0999 V2000
    5.7323   -8.1791   22.3775 C   0  0  0  0  0  0  0  0  0  0  0  0
    5.3677   -9.6038   22.0124 C   0  0  0  0  0  0  0  0  0  0  0  0
    4.7432  -10.2713   23.1908 C   0  0  1  0  0  0  0  0  0  0  0  0
    3.3629   -9.8275   23.5839 C   0  0  0  0  0  0  0  0  0  0  0  0
    3.5868  -11.2123   23.0359 C   0  0  2  0  0  0  0  0  0  0  0  0
    3.3382  -12.2797   23.9087 N   0  0  0  0  0  0  0  0  0  0  0  0
    4.2973  -13.3074   24.5270 C   0  0  0  0  0  0  0  0  0  0  0  0
    5.4356  -13.4797   24.3505 O   0  0  0  0  0  0  0  0  0  0  0  0
    3.5134  -14.0334   25.5267 C   0  0  0  0  0  0  0  0  0  0  0  0
    3.9579  -15.0220   26.3923 C   0  0  0  0  0  0  0  0  0  0  0  0
    2.8937  -15.2510   27.1740 N   0  0  0  0  0  0  0  0  0  0  0  0
    1.8641  -14.4432   26.8093 C   0  0  0  0  0  0  0  0  0  0  0  0
    2.1663  -13.7036   25.7812 N   0  0  0  0  0  0  0  0  0  0  0  0
    0.7245  -14.5706   27.7222 C   0  0  0  0  0  0  0  0  0  0  0  0
    1.3641  -15.3316   28.9143 C   0  0  0  0  0  0  0  0  0  0  0  0
    2.6326  -16.0170   28.3686 C   0  0  0  0  0  0  0  0  0  0  0  0
  1  2  1  0
  3  2  1  6
  3  4  1  0
  4  5  1  0
  5  6  1  1
  6  7  1  0
  7  8  2  0
  7  9  1  0
  9 10  2  0
 10 11  1  0
 11 12  1  0
 12 13  2  0
 12 14  1  0
 14 15  1  0
 15 16  1  0
  5  3  1  0
 13  9  1  0
 16 11  1  0
M  END
>  <inchikey>  (1765) 
VVAIBTVRBZEKNA-UHFFFAOYSA-N

>  <tags>  (1765) 
fragmenstein_placed,CpKRS_FrAncestor_bulkdock_iter2

>  <ref_pdb>  (1765) 
x0421a

>  <energy_score>  (1765) 
-13.504205

>  <distance_score>  (1765) 
0.961632

>  <HIPPO Pose ID>  (1765) 
62049

>  <ref_mols>  (1765) 
x0421c

>  <smiles>  (1765) 
CC[C@H]1C[C@@H]1NC(=O)c1cn2c(n1)CCC2

>  <HIPPO Compound ID>  (1765) 
30514

>  <alias>  (1765) 
VVAIBTVRBZEKNA-IUCAKERBSA-N-P13

>  <subsites>  (1765) 


>  <placement_batch>  (1765) 
CpKRS_FrAncestor_bulkdock_iter2

>  <name>  (1765) 
VVAIBTVRBZEKNA-IUCAKERBSA-N-P13

$$$$
XVMVPXQUHCAKDA-IUCAKERBSA-N-P13
     RDKit          3D

 16 18  0  0  0  0  0  0  0  0999 V2000
    5.3712   -8.4094   21.7413 C   0  0  0  0  0  0  0  0  0  0  0  0
    5.3880   -8.9650   23.1473 C   0  0  0  0  0  0  0  0  0  0  0  0
    4.5625  -10.2076   23.1894 C   0  0  1  0  0  0  0  0  0  0  0  0
    5.0165  -11.4222   22.4218 C   0  0  0  0  0  0  0  0  0  0  0  0
    5.0341  -11.4294   23.9220 C   0  0  2  0  0  0  0  0  0  0  0  0
    4.1053  -12.2129   24.6232 N   0  0  0  0  0  0  0  0  0  0  0  0
    4.1521  -13.6992   25.0268 C   0  0  0  0  0  0  0  0  0  0  0  0
    4.9329  -14.5254   24.7748 O   0  0  0  0  0  0  0  0  0  0  0  0
    2.9399  -14.0021   25.7495 C   0  0  0  0  0  0  0  0  0  0  0  0
    2.7411  -14.8205   26.8526 C   0  0  0  0  0  0  0  0  0  0  0  0
    1.4070  -14.8530   27.2397 N   0  0  0  0  0  0  0  0  0  0  0  0
    0.8075  -14.1158   26.3454 C   0  0  0  0  0  0  0  0  0  0  0  0
    1.6855  -13.5873   25.4549 N   0  0  0  0  0  0  0  0  0  0  0  0
    1.0366  -12.8843   24.3643 C   0  0  0  0  0  0  0  0  0  0  0  0
   -0.4249  -13.3394   24.5129 C   0  0  0  0  0  0  0  0  0  0  0  0
   -0.5803  -13.7735   25.9902 C   0  0  0  0  0  0  0  0  0  0  0  0
  1  2  1  0
  3  2  1  6
  3  4  1  0
  4  5  1  0
  5  6  1  1
  6  7  1  0
  7  8  2  0
  7  9  1  0
  9 10  2  0
 10 11  1  0
 11 12  2  0
 12 13  1  0
 13 14  1  0
 14 15  1  0
 15 16  1  0
  5  3  1  0
 13  9  1  0
 16 12  1  0
M  END
>  <inchikey>  (1766) 
XVMVPXQUHCAKDA-UHFFFAOYSA-N

>  <tags>  (1766) 
fragmenstein_placed,CpKRS_FrAncestor_bulkdock_iter2

>  <ref_pdb>  (1766) 
x0421a

>  <energy_score>  (1766) 
-3.493215

>  <distance_score>  (1766) 
0.871006

>  <HIPPO Pose ID>  (1766) 
62053

>  <ref_mols>  (1766) 
x0421c

>  <smiles>  (1766) 
CC[C@H]1C[C@@H]1NC(=O)c1cnc2n1CCC2

>  <HIPPO Compound ID>  (1766) 
30515

>  <alias>  (1766) 
XVMVPXQUHCAKDA-IUCAKERBSA-N-P13

>  <subsites>  (1766) 


>  <placement_batch>  (1766) 
CpKRS_FrAncestor_bulkdock_iter2

>  <name>  (1766) 
XVMVPXQUHCAKDA-IUCAKERBSA-N-P13

$$$$
BLUMFAWBDXDUMY-WDSKDSINSA-N-P14
     RDKit          3D

 14 15  0  0  0  0  0  0  0  0999 V2000
    5.0885   -8.4619   21.5078 C   0  0  0  0  0  0  0  0  0  0  0  0
    5.2718   -9.0589   22.8811 C   0  0  0  0  0  0  0  0  0  0  0  0
    4.3899  -10.2550   23.0208 C   0  0  1  0  0  0  0  0  0  0  0  0
    4.6461  -11.4835   22.1829 C   0  0  0  0  0  0  0  0  0  0  0  0
    4.9225  -11.5045   23.6523 C   0  0  2  0  0  0  0  0  0  0  0  0
    4.1191  -12.2511   24.5205 N   0  0  0  0  0  0  0  0  0  0  0  0
    4.4424  -13.5042   25.3523 C   0  0  0  0  0  0  0  0  0  0  0  0
    5.4496  -14.0693   25.5067 O   0  0  0  0  0  0  0  0  0  0  0  0
    3.2175  -13.8524   26.0544 C   0  0  0  0  0  0  0  0  0  0  0  0
    3.0374  -14.8177   27.0138 C   0  0  0  0  0  0  0  0  0  0  0  0
    1.7209  -14.8086   27.3710 O   0  0  0  0  0  0  0  0  0  0  0  0
    1.1765  -13.8135   26.6119 C   0  0  0  0  0  0  0  0  0  0  0  0
   -0.4926  -13.4201   26.5775 Cl  0  0  0  0  0  0  0  0  0  0  0  0
    2.0219  -13.1764   25.8402 N   0  0  0  0  0  0  0  0  0  0  0  0
  1  2  1  0
  3  2  1  6
  3  4  1  0
  4  5  1  0
  5  6  1  1
  6  7  1  0
  7  8  2  0
  7  9  1  0
  9 10  2  0
 10 11  1  0
 11 12  1  0
 12 13  1  0
 12 14  2  0
  5  3  1  0
 14  9  1  0
M  END
>  <inchikey>  (1767) 
BLUMFAWBDXDUMY-UHFFFAOYSA-N

>  <tags>  (1767) 
fragmenstein_placed,CpKRS_FrAncestor_bulkdock_iter2

>  <ref_pdb>  (1767) 
x0421a

>  <energy_score>  (1767) 
-7.630223

>  <distance_score>  (1767) 
0.757501

>  <HIPPO Pose ID>  (1767) 
62066

>  <ref_mols>  (1767) 
x0421d

>  <smiles>  (1767) 
CC[C@H]1C[C@@H]1NC(=O)c1coc(Cl)n1

>  <HIPPO Compound ID>  (1767) 
30518

>  <alias>  (1767) 
BLUMFAWBDXDUMY-WDSKDSINSA-N-P14

>  <subsites>  (1767) 


>  <placement_batch>  (1767) 
CpKRS_FrAncestor_bulkdock_iter2

>  <name>  (1767) 
BLUMFAWBDXDUMY-WDSKDSINSA-N-P14

$$$$
MRGOKMJXQHZUBD-YUMQZZPRSA-N-P14
     RDKit          3D

 14 15  0  0  0  0  0  0  0  0999 V2000
    5.1647   -8.3380   21.5111 C   0  0  0  0  0  0  0  0  0  0  0  0
    5.2263   -8.8792   22.9155 C   0  0  0  0  0  0  0  0  0  0  0  0
    4.4150  -10.1293   23.0037 C   0  0  1  0  0  0  0  0  0  0  0  0
    4.7046  -11.3040   22.0971 C   0  0  0  0  0  0  0  0  0  0  0  0
    5.0563  -11.3657   23.5458 C   0  0  2  0  0  0  0  0  0  0  0  0
    4.3570  -12.1997   24.4166 N   0  0  0  0  0  0  0  0  0  0  0  0
    4.8138  -13.4500   25.1839 C   0  0  0  0  0  0  0  0  0  0  0  0
    5.8668  -13.9391   25.2718 O   0  0  0  0  0  0  0  0  0  0  0  0
    3.6485  -13.9035   25.9162 C   0  0  0  0  0  0  0  0  0  0  0  0
    3.5527  -14.9278   26.8242 C   0  0  0  0  0  0  0  0  0  0  0  0
    2.2725  -14.9484   27.2918 O   0  0  0  0  0  0  0  0  0  0  0  0
    1.6734  -13.9031   26.6510 C   0  0  0  0  0  0  0  0  0  0  0  0
    0.2742  -13.6430   26.9614 C   0  0  0  0  0  0  0  0  0  0  0  0
    2.4321  -13.2387   25.8205 N   0  0  0  0  0  0  0  0  0  0  0  0
  1  2  1  0
  3  2  1  6
  3  4  1  0
  4  5  1  0
  5  6  1  1
  6  7  1  0
  7  8  2  0
  7  9  1  0
  9 10  2  0
 10 11  1  0
 11 12  1  0
 12 13  1  0
 12 14  2  0
  5  3  1  0
 14  9  1  0
M  END
>  <inchikey>  (1768) 
MRGOKMJXQHZUBD-UHFFFAOYSA-N

>  <tags>  (1768) 
fragmenstein_placed,CpKRS_FrAncestor_bulkdock_iter2

>  <ref_pdb>  (1768) 
x0421a

>  <energy_score>  (1768) 
-23.209366

>  <distance_score>  (1768) 
0.698467

>  <HIPPO Pose ID>  (1768) 
62070

>  <ref_mols>  (1768) 
x0421d

>  <smiles>  (1768) 
CC[C@H]1C[C@@H]1NC(=O)c1coc(C)n1

>  <HIPPO Compound ID>  (1768) 
30519

>  <alias>  (1768) 
MRGOKMJXQHZUBD-YUMQZZPRSA-N-P14

>  <subsites>  (1768) 


>  <placement_batch>  (1768) 
CpKRS_FrAncestor_bulkdock_iter2

>  <name>  (1768) 
MRGOKMJXQHZUBD-YUMQZZPRSA-N-P14

$$$$
VPGPVHQMJSOWFQ-WDSKDSINSA-N-P13
     RDKit          3D

 14 15  0  0  0  0  0  0  0  0999 V2000
    5.5062   -8.0000   22.2155 C   0  0  0  0  0  0  0  0  0  0  0  0
    5.4148   -9.4166   21.6886 C   0  0  0  0  0  0  0  0  0  0  0  0
    5.3355  -10.4651   22.7449 C   0  0  1  0  0  0  0  0  0  0  0  0
    5.6892  -10.1247   24.1658 C   0  0  0  0  0  0  0  0  0  0  0  0
    4.2738  -10.4826   23.8086 C   0  0  2  0  0  0  0  0  0  0  0  0
    3.7351  -11.6680   24.3484 N   0  0  0  0  0  0  0  0  0  0  0  0
    4.4248  -12.9883   24.7567 C   0  0  0  0  0  0  0  0  0  0  0  0
    5.5341  -13.3298   24.6389 O   0  0  0  0  0  0  0  0  0  0  0  0
    3.4318  -13.7962   25.4669 C   0  0  0  0  0  0  0  0  0  0  0  0
    3.7277  -14.9214   26.2153 C   0  0  0  0  0  0  0  0  0  0  0  0
    2.3171  -15.4722   27.0111 S   0  0  0  0  0  0  0  0  0  0  0  0
    1.4285  -14.2352   26.2549 C   0  0  0  0  0  0  0  0  0  0  0  0
   -0.4531  -14.0110   26.4931 Br  0  0  0  0  0  0  0  0  0  0  0  0
    2.0899  -13.4073   25.4897 N   0  0  0  0  0  0  0  0  0  0  0  0
  1  2  1  0
  3  2  1  6
  3  4  1  0
  4  5  1  0
  5  6  1  1
  6  7  1  0
  7  8  2  0
  7  9  1  0
  9 10  2  0
 10 11  1  0
 11 12  1  0
 12 13  1  0
 12 14  2  0
  5  3  1  0
 14  9  1  0
M  END
>  <inchikey>  (1769) 
VPGPVHQMJSOWFQ-UHFFFAOYSA-N

>  <tags>  (1769) 
fragmenstein_placed,CpKRS_FrAncestor_bulkdock_iter2

>  <ref_pdb>  (1769) 
x0421a

>  <energy_score>  (1769) 
-32.835035

>  <distance_score>  (1769) 
0.56465

>  <HIPPO Pose ID>  (1769) 
62073

>  <ref_mols>  (1769) 
x0421c

>  <smiles>  (1769) 
CC[C@H]1C[C@@H]1NC(=O)c1csc(Br)n1

>  <HIPPO Compound ID>  (1769) 
30520

>  <alias>  (1769) 
VPGPVHQMJSOWFQ-WDSKDSINSA-N-P13

>  <subsites>  (1769) 


>  <placement_batch>  (1769) 
CpKRS_FrAncestor_bulkdock_iter2

>  <name>  (1769) 
VPGPVHQMJSOWFQ-WDSKDSINSA-N-P13

$$$$
SAXNCAIGDDDNHP-WDSKDSINSA-N-P12
     RDKit          3D

 14 15  0  0  0  0  0  0  0  0999 V2000
    5.5498   -8.0120   22.0781 C   0  0  0  0  0  0  0  0  0  0  0  0
    4.8876   -9.3079   21.6635 C   0  0  0  0  0  0  0  0  0  0  0  0
    4.9983  -10.3781   22.6961 C   0  0  1  0  0  0  0  0  0  0  0  0
    5.5367  -10.0766   24.0724 C   0  0  0  0  0  0  0  0  0  0  0  0
    4.0824  -10.3891   23.8865 C   0  0  2  0  0  0  0  0  0  0  0  0
    3.5568  -11.5745   24.4322 N   0  0  0  0  0  0  0  0  0  0  0  0
    4.2475  -12.9106   24.7807 C   0  0  0  0  0  0  0  0  0  0  0  0
    5.3443  -13.2649   24.5990 O   0  0  0  0  0  0  0  0  0  0  0  0
    3.2698  -13.7030   25.5239 C   0  0  0  0  0  0  0  0  0  0  0  0
    3.5768  -14.7912   26.3199 C   0  0  0  0  0  0  0  0  0  0  0  0
    2.1812  -15.2756   27.1848 S   0  0  0  0  0  0  0  0  0  0  0  0
    1.2882  -14.0759   26.3841 C   0  0  0  0  0  0  0  0  0  0  0  0
   -0.3881  -13.8821   26.6681 Cl  0  0  0  0  0  0  0  0  0  0  0  0
    1.9276  -13.3162   25.5357 N   0  0  0  0  0  0  0  0  0  0  0  0
  1  2  1  0
  3  2  1  6
  3  4  1  0
  4  5  1  0
  5  6  1  1
  6  7  1  0
  7  8  2  0
  7  9  1  0
  9 10  2  0
 10 11  1  0
 11 12  1  0
 12 13  1  0
 12 14  2  0
  5  3  1  0
 14  9  1  0
M  END
>  <inchikey>  (1770) 
SAXNCAIGDDDNHP-UHFFFAOYSA-N

>  <tags>  (1770) 
fragmenstein_placed,CpKRS_FrAncestor_bulkdock_iter2

>  <ref_pdb>  (1770) 
x0421a

>  <energy_score>  (1770) 
-29.479753

>  <distance_score>  (1770) 
0.587572

>  <HIPPO Pose ID>  (1770) 
62076

>  <ref_mols>  (1770) 
x0421b

>  <smiles>  (1770) 
CC[C@H]1C[C@@H]1NC(=O)c1csc(Cl)n1

>  <HIPPO Compound ID>  (1770) 
30521

>  <alias>  (1770) 
SAXNCAIGDDDNHP-WDSKDSINSA-N-P12

>  <subsites>  (1770) 


>  <placement_batch>  (1770) 
CpKRS_FrAncestor_bulkdock_iter2

>  <name>  (1770) 
SAXNCAIGDDDNHP-WDSKDSINSA-N-P12

$$$$
HHXGAQWQOCGGDH-YUMQZZPRSA-N-P11
     RDKit          3D

 14 15  0  0  0  0  0  0  0  0999 V2000
    5.0160   -8.3559   21.8498 C   0  0  0  0  0  0  0  0  0  0  0  0
    5.4385   -9.7842   21.5861 C   0  0  0  0  0  0  0  0  0  0  0  0
    5.2894  -10.7225   22.7352 C   0  0  1  0  0  0  0  0  0  0  0  0
    5.6359  -10.2481   24.1190 C   0  0  0  0  0  0  0  0  0  0  0  0
    4.2184  -10.6265   23.7875 C   0  0  2  0  0  0  0  0  0  0  0  0
    3.6531  -11.7630   24.4067 N   0  0  0  0  0  0  0  0  0  0  0  0
    4.3223  -13.0464   24.9549 C   0  0  0  0  0  0  0  0  0  0  0  0
    5.4357  -13.3979   24.9105 O   0  0  0  0  0  0  0  0  0  0  0  0
    3.2852  -13.7819   25.6906 C   0  0  0  0  0  0  0  0  0  0  0  0
    3.5112  -14.8884   26.4866 C   0  0  0  0  0  0  0  0  0  0  0  0
    2.0548  -15.3766   27.2429 S   0  0  0  0  0  0  0  0  0  0  0  0
    1.2262  -14.1155   26.4301 C   0  0  0  0  0  0  0  0  0  0  0  0
   -0.2328  -13.9343   26.5948 C   0  0  0  0  0  0  0  0  0  0  0  0
    1.9621  -13.3186   25.6936 N   0  0  0  0  0  0  0  0  0  0  0  0
  1  2  1  0
  3  2  1  6
  3  4  1  0
  4  5  1  0
  5  6  1  1
  6  7  1  0
  7  8  2  0
  7  9  1  0
  9 10  2  0
 10 11  1  0
 11 12  1  0
 12 13  1  0
 12 14  2  0
  5  3  1  0
 14  9  1  0
M  END
>  <inchikey>  (1771) 
HHXGAQWQOCGGDH-UHFFFAOYSA-N

>  <tags>  (1771) 
fragmenstein_placed,CpKRS_FrAncestor_bulkdock_iter2

>  <ref_pdb>  (1771) 
x0421a

>  <energy_score>  (1771) 
-32.176317

>  <distance_score>  (1771) 
0.573029

>  <HIPPO Pose ID>  (1771) 
62079

>  <ref_mols>  (1771) 
x0421a

>  <smiles>  (1771) 
CC[C@H]1C[C@@H]1NC(=O)c1csc(C)n1

>  <HIPPO Compound ID>  (1771) 
30522

>  <alias>  (1771) 
HHXGAQWQOCGGDH-YUMQZZPRSA-N-P11

>  <subsites>  (1771) 


>  <placement_batch>  (1771) 
CpKRS_FrAncestor_bulkdock_iter2

>  <name>  (1771) 
HHXGAQWQOCGGDH-YUMQZZPRSA-N-P11

$$$$
VULKOEZFBBJNKO-CBAPKCEASA-N-P14
     RDKit          3D

 15 16  0  0  0  0  0  0  0  0999 V2000
    5.3217   -8.1474   21.9114 C   0  0  0  0  0  0  0  0  0  0  0  0
    5.1718   -9.5878   21.4629 C   0  0  0  0  0  0  0  0  0  0  0  0
    5.0102  -10.5805   22.5640 C   0  0  1  0  0  0  0  0  0  0  0  0
    5.4769  -10.2097   23.9403 C   0  0  0  0  0  0  0  0  0  0  0  0
    4.0131  -10.4466   23.6789 C   0  0  2  0  0  0  0  0  0  0  0  0
    3.4222  -11.5246   24.3732 N   0  0  0  0  0  0  0  0  0  0  0  0
    4.0298  -12.8693   24.8496 C   0  0  0  0  0  0  0  0  0  0  0  0
    5.0897  -13.3241   24.6737 O   0  0  0  0  0  0  0  0  0  0  0  0
    3.0019  -13.5355   25.7447 C   0  0  0  0  0  0  0  0  0  0  0  0
    1.7677  -12.9069   25.7233 N   0  0  0  0  0  0  0  0  0  0  0  0
    0.8691  -13.2850   26.6469 C   0  0  0  0  0  0  0  0  0  0  0  0
    1.1423  -14.2101   27.6301 C   0  0  0  0  0  0  0  0  0  0  0  0
    2.3633  -14.8687   27.6145 C   0  0  0  0  0  0  0  0  0  0  0  0
    3.3204  -14.5410   26.6564 C   0  0  0  0  0  0  0  0  0  0  0  0
    4.9454  -15.4924   26.7685 Br  0  0  0  0  0  0  0  0  0  0  0  0
  1  2  1  0
  3  2  1  6
  3  4  1  0
  4  5  1  0
  5  6  1  1
  6  7  1  0
  7  8  2  0
  7  9  1  0
  9 10  2  0
 10 11  1  0
 11 12  2  0
 12 13  1  0
 13 14  2  0
 14 15  1  0
  5  3  1  0
 14  9  1  0
M  END
>  <inchikey>  (1772) 
VULKOEZFBBJNKO-UHFFFAOYSA-N

>  <tags>  (1772) 
fragmenstein_placed,CpKRS_FrAncestor_bulkdock_iter2

>  <ref_pdb>  (1772) 
x0421a

>  <energy_score>  (1772) 
-8.843411

>  <distance_score>  (1772) 
0.715545

>  <HIPPO Pose ID>  (1772) 
62086

>  <ref_mols>  (1772) 
x0421d

>  <smiles>  (1772) 
CC[C@H]1C[C@@H]1NC(=O)c1ncccc1Br

>  <HIPPO Compound ID>  (1772) 
30523

>  <alias>  (1772) 
VULKOEZFBBJNKO-CBAPKCEASA-N-P14

>  <subsites>  (1772) 


>  <placement_batch>  (1772) 
CpKRS_FrAncestor_bulkdock_iter2

>  <name>  (1772) 
VULKOEZFBBJNKO-CBAPKCEASA-N-P14

$$$$
ZZWQOKFHPMVGMD-CBAPKCEASA-N-P14
     RDKit          3D

 15 16  0  0  0  0  0  0  0  0999 V2000
    5.2819   -8.3750   21.4954 C   0  0  0  0  0  0  0  0  0  0  0  0
    5.1375   -8.8493   22.9191 C   0  0  0  0  0  0  0  0  0  0  0  0
    4.2877  -10.0765   22.9581 C   0  0  1  0  0  0  0  0  0  0  0  0
    4.5973  -11.2578   22.0644 C   0  0  0  0  0  0  0  0  0  0  0  0
    4.8556  -11.3326   23.5316 C   0  0  2  0  0  0  0  0  0  0  0  0
    4.0857  -12.1772   24.3328 N   0  0  0  0  0  0  0  0  0  0  0  0
    4.4807  -13.4247   25.1333 C   0  0  0  0  0  0  0  0  0  0  0  0
    5.4931  -13.9925   25.1923 O   0  0  0  0  0  0  0  0  0  0  0  0
    3.2868  -13.8107   25.9760 C   0  0  0  0  0  0  0  0  0  0  0  0
    2.1543  -13.0467   25.7483 N   0  0  0  0  0  0  0  0  0  0  0  0
    1.1068  -13.2523   26.5626 C   0  0  0  0  0  0  0  0  0  0  0  0
    1.1364  -14.1430   27.6138 C   0  0  0  0  0  0  0  0  0  0  0  0
    2.2594  -14.9396   27.7960 C   0  0  0  0  0  0  0  0  0  0  0  0
    3.3592  -14.7883   26.9592 C   0  0  0  0  0  0  0  0  0  0  0  0
    4.6916  -15.8266   27.2318 Cl  0  0  0  0  0  0  0  0  0  0  0  0
  1  2  1  0
  3  2  1  6
  3  4  1  0
  4  5  1  0
  5  6  1  1
  6  7  1  0
  7  8  2  0
  7  9  1  0
  9 10  2  0
 10 11  1  0
 11 12  2  0
 12 13  1  0
 13 14  2  0
 14 15  1  0
  5  3  1  0
 14  9  1  0
M  END
>  <inchikey>  (1773) 
ZZWQOKFHPMVGMD-UHFFFAOYSA-N

>  <tags>  (1773) 
fragmenstein_placed,CpKRS_FrAncestor_bulkdock_iter2

>  <ref_pdb>  (1773) 
x0421a

>  <energy_score>  (1773) 
-3.322307

>  <distance_score>  (1773) 
0.786863

>  <HIPPO Pose ID>  (1773) 
62094

>  <ref_mols>  (1773) 
x0421d

>  <smiles>  (1773) 
CC[C@H]1C[C@@H]1NC(=O)c1ncccc1Cl

>  <HIPPO Compound ID>  (1773) 
30525

>  <alias>  (1773) 
ZZWQOKFHPMVGMD-CBAPKCEASA-N-P14

>  <subsites>  (1773) 


>  <placement_batch>  (1773) 
CpKRS_FrAncestor_bulkdock_iter2

>  <name>  (1773) 
ZZWQOKFHPMVGMD-CBAPKCEASA-N-P14

$$$$
ASXYQNNXBXHPGY-YUMQZZPRSA-N-P13
     RDKit          3D

 14 15  0  0  0  0  0  0  0  0999 V2000
    5.2049   -8.1987   24.2828 C   0  0  0  0  0  0  0  0  0  0  0  0
    5.2644   -8.7461   22.8675 C   0  0  0  0  0  0  0  0  0  0  0  0
    4.4919  -10.0245   22.7728 C   0  0  1  0  0  0  0  0  0  0  0  0
    5.0166  -11.1905   21.9874 C   0  0  0  0  0  0  0  0  0  0  0  0
    5.0348  -11.2343   23.4839 C   0  0  2  0  0  0  0  0  0  0  0  0
    4.2014  -12.1200   24.1932 N   0  0  0  0  0  0  0  0  0  0  0  0
    4.5188  -13.4685   24.8709 C   0  0  0  0  0  0  0  0  0  0  0  0
    5.5031  -14.0959   24.8829 O   0  0  0  0  0  0  0  0  0  0  0  0
    3.3285  -13.8781   25.6201 C   0  0  0  0  0  0  0  0  0  0  0  0
    2.1594  -13.2509   25.5395 N   0  0  0  0  0  0  0  0  0  0  0  0
    1.3307  -13.8938   26.4218 C   0  0  0  0  0  0  0  0  0  0  0  0
    1.9917  -14.9175   27.0540 C   0  0  0  0  0  0  0  0  0  0  0  0
    3.2533  -14.9076   26.5266 N   0  0  0  0  0  0  0  0  0  0  0  0
    4.3237  -15.8011   26.8932 C   0  0  0  0  0  0  0  0  0  0  0  0
  1  2  1  0
  3  2  1  1
  3  4  1  0
  4  5  1  0
  5  6  1  6
  6  7  1  0
  7  8  2  0
  7  9  1  0
  9 10  2  0
 10 11  1  0
 11 12  2  0
 12 13  1  0
 13 14  1  0
  5  3  1  0
 13  9  1  0
M  END
>  <inchikey>  (1774) 
ASXYQNNXBXHPGY-UHFFFAOYSA-N

>  <tags>  (1774) 
fragmenstein_placed,CpKRS_FrAncestor_bulkdock_iter2

>  <ref_pdb>  (1774) 
x0421a

>  <energy_score>  (1774) 
-26.329729

>  <distance_score>  (1774) 
0.616244

>  <HIPPO Pose ID>  (1774) 
62101

>  <ref_mols>  (1774) 
x0421c

>  <smiles>  (1774) 
CC[C@H]1C[C@@H]1NC(=O)c1nccn1C

>  <HIPPO Compound ID>  (1774) 
30527

>  <alias>  (1774) 
ASXYQNNXBXHPGY-YUMQZZPRSA-N-P13

>  <subsites>  (1774) 


>  <placement_batch>  (1774) 
CpKRS_FrAncestor_bulkdock_iter2

>  <name>  (1774) 
ASXYQNNXBXHPGY-YUMQZZPRSA-N-P13

$$$$
RUAOTIZFXNMYIT-YUMQZZPRSA-N-P11
     RDKit          3D

 14 15  0  0  0  0  0  0  0  0999 V2000
    5.2849   -8.4068   22.0200 C   0  0  0  0  0  0  0  0  0  0  0  0
    5.1690   -9.8689   21.6367 C   0  0  0  0  0  0  0  0  0  0  0  0
    5.1123  -10.8272   22.7818 C   0  0  1  0  0  0  0  0  0  0  0  0
    5.4973  -10.3841   24.1649 C   0  0  0  0  0  0  0  0  0  0  0  0
    4.0667  -10.7407   23.8631 C   0  0  2  0  0  0  0  0  0  0  0  0
    3.4986  -11.8701   24.4989 N   0  0  0  0  0  0  0  0  0  0  0  0
    4.1640  -13.1554   25.0480 C   0  0  0  0  0  0  0  0  0  0  0  0
    5.2740  -13.5168   24.9921 O   0  0  0  0  0  0  0  0  0  0  0  0
    3.1393  -13.8823   25.8033 C   0  0  0  0  0  0  0  0  0  0  0  0
    1.7967  -13.4957   25.8335 N   0  0  0  0  0  0  0  0  0  0  0  0
    1.2553  -14.3826   26.6348 C   0  0  0  0  0  0  0  0  0  0  0  0
    2.1094  -15.2722   27.1956 O   0  0  0  0  0  0  0  0  0  0  0  0
    3.3236  -14.9571   26.6507 C   0  0  0  0  0  0  0  0  0  0  0  0
    4.4671  -15.7735   27.0870 C   0  0  0  0  0  0  0  0  0  0  0  0
  1  2  1  0
  3  2  1  6
  3  4  1  0
  4  5  1  0
  5  6  1  1
  6  7  1  0
  7  8  2  0
  7  9  1  0
  9 10  1  0
 10 11  2  0
 11 12  1  0
 12 13  1  0
 13 14  1  0
  5  3  1  0
 13  9  2  0
M  END
>  <inchikey>  (1775) 
RUAOTIZFXNMYIT-UHFFFAOYSA-N

>  <tags>  (1775) 
fragmenstein_placed,CpKRS_FrAncestor_bulkdock_iter2

>  <ref_pdb>  (1775) 
x0421a

>  <energy_score>  (1775) 
-4.218174

>  <distance_score>  (1775) 
0.555801

>  <HIPPO Pose ID>  (1775) 
62107

>  <ref_mols>  (1775) 
x0421a

>  <smiles>  (1775) 
CC[C@H]1C[C@@H]1NC(=O)c1ncoc1C

>  <HIPPO Compound ID>  (1775) 
30529

>  <alias>  (1775) 
RUAOTIZFXNMYIT-YUMQZZPRSA-N-P11

>  <subsites>  (1775) 


>  <placement_batch>  (1775) 
CpKRS_FrAncestor_bulkdock_iter2

>  <name>  (1775) 
RUAOTIZFXNMYIT-YUMQZZPRSA-N-P11

$$$$
SJRZJPMTVDOYCJ-WDSKDSINSA-N-P11
     RDKit          3D

 14 15  0  0  0  0  0  0  0  0999 V2000
    4.9984   -8.4099   21.8664 C   0  0  0  0  0  0  0  0  0  0  0  0
    5.3694   -9.8541   21.6072 C   0  0  0  0  0  0  0  0  0  0  0  0
    5.1397  -10.7965   22.7426 C   0  0  1  0  0  0  0  0  0  0  0  0
    5.5133  -10.3591   24.1294 C   0  0  0  0  0  0  0  0  0  0  0  0
    4.0715  -10.6434   23.7966 C   0  0  2  0  0  0  0  0  0  0  0  0
    3.4428  -11.7447   24.4253 N   0  0  0  0  0  0  0  0  0  0  0  0
    4.0377  -13.0667   24.9672 C   0  0  0  0  0  0  0  0  0  0  0  0
    5.1260  -13.4861   24.9100 O   0  0  0  0  0  0  0  0  0  0  0  0
    2.9629  -13.7445   25.7221 C   0  0  0  0  0  0  0  0  0  0  0  0
    1.6405  -13.2434   25.6722 N   0  0  0  0  0  0  0  0  0  0  0  0
    0.8692  -13.9798   26.4406 C   0  0  0  0  0  0  0  0  0  0  0  0
    1.6318  -15.2376   27.3108 S   0  0  0  0  0  0  0  0  0  0  0  0
    3.1137  -14.8056   26.5925 C   0  0  0  0  0  0  0  0  0  0  0  0
    4.7323  -15.6836   27.0739 Br  0  0  0  0  0  0  0  0  0  0  0  0
  1  2  1  0
  3  2  1  6
  3  4  1  0
  4  5  1  0
  5  6  1  1
  6  7  1  0
  7  8  2  0
  7  9  1  0
  9 10  1  0
 10 11  2  0
 11 12  1  0
 12 13  1  0
 13 14  1  0
  5  3  1  0
 13  9  2  0
M  END
>  <inchikey>  (1776) 
SJRZJPMTVDOYCJ-UHFFFAOYSA-N

>  <tags>  (1776) 
fragmenstein_placed,CpKRS_FrAncestor_bulkdock_iter2

>  <ref_pdb>  (1776) 
x0421a

>  <energy_score>  (1776) 
-66.262975

>  <distance_score>  (1776) 
0.611983

>  <HIPPO Pose ID>  (1776) 
62111

>  <ref_mols>  (1776) 
x0421a

>  <smiles>  (1776) 
CC[C@H]1C[C@@H]1NC(=O)c1ncsc1Br

>  <HIPPO Compound ID>  (1776) 
30530

>  <alias>  (1776) 
SJRZJPMTVDOYCJ-WDSKDSINSA-N-P11

>  <subsites>  (1776) 


>  <placement_batch>  (1776) 
CpKRS_FrAncestor_bulkdock_iter2

>  <name>  (1776) 
SJRZJPMTVDOYCJ-WDSKDSINSA-N-P11

$$$$
UMQHWPFQBHQYPO-YUMQZZPRSA-N-P11
     RDKit          3D

 14 15  0  0  0  0  0  0  0  0999 V2000
    5.2801   -8.4549   22.0330 C   0  0  0  0  0  0  0  0  0  0  0  0
    5.1331   -9.9157   21.6534 C   0  0  0  0  0  0  0  0  0  0  0  0
    5.0731  -10.8745   22.7984 C   0  0  1  0  0  0  0  0  0  0  0  0
    5.4850  -10.4410   24.1760 C   0  0  0  0  0  0  0  0  0  0  0  0
    4.0436  -10.7697   23.8941 C   0  0  2  0  0  0  0  0  0  0  0  0
    3.4628  -11.8845   24.5437 N   0  0  0  0  0  0  0  0  0  0  0  0
    4.1068  -13.1920   25.0663 C   0  0  0  0  0  0  0  0  0  0  0  0
    5.2030  -13.5860   24.9730 O   0  0  0  0  0  0  0  0  0  0  0  0
    3.0690  -13.8933   25.8581 C   0  0  0  0  0  0  0  0  0  0  0  0
    1.7400  -13.4145   25.8405 N   0  0  0  0  0  0  0  0  0  0  0  0
    0.9997  -14.1570   26.6290 C   0  0  0  0  0  0  0  0  0  0  0  0
    1.7970  -15.4095   27.4689 S   0  0  0  0  0  0  0  0  0  0  0  0
    3.2782  -14.9670   26.7153 C   0  0  0  0  0  0  0  0  0  0  0  0
    4.5114  -15.7220   27.0658 C   0  0  0  0  0  0  0  0  0  0  0  0
  1  2  1  0
  3  2  1  6
  3  4  1  0
  4  5  1  0
  5  6  1  1
  6  7  1  0
  7  8  2  0
  7  9  1  0
  9 10  1  0
 10 11  2  0
 11 12  1  0
 12 13  1  0
 13 14  1  0
  5  3  1  0
 13  9  2  0
M  END
>  <inchikey>  (1777) 
UMQHWPFQBHQYPO-UHFFFAOYSA-N

>  <tags>  (1777) 
fragmenstein_placed,CpKRS_FrAncestor_bulkdock_iter2

>  <ref_pdb>  (1777) 
x0421a

>  <energy_score>  (1777) 
-30.142448

>  <distance_score>  (1777) 
0.575236

>  <HIPPO Pose ID>  (1777) 
62115

>  <ref_mols>  (1777) 
x0421a

>  <smiles>  (1777) 
CC[C@H]1C[C@@H]1NC(=O)c1ncsc1C

>  <HIPPO Compound ID>  (1777) 
30531

>  <alias>  (1777) 
UMQHWPFQBHQYPO-YUMQZZPRSA-N-P11

>  <subsites>  (1777) 


>  <placement_batch>  (1777) 
CpKRS_FrAncestor_bulkdock_iter2

>  <name>  (1777) 
UMQHWPFQBHQYPO-YUMQZZPRSA-N-P11

$$$$
XIIZOENBBJPQJD-WDSKDSINSA-N-P13
     RDKit          3D

 14 15  0  0  0  0  0  0  0  0999 V2000
    5.4371   -8.3399   21.6508 C   0  0  0  0  0  0  0  0  0  0  0  0
    5.2743   -8.7884   23.0822 C   0  0  0  0  0  0  0  0  0  0  0  0
    4.4632  -10.0404   23.1176 C   0  0  1  0  0  0  0  0  0  0  0  0
    4.8898  -11.2432   22.3064 C   0  0  0  0  0  0  0  0  0  0  0  0
    5.0068  -11.2543   23.7966 C   0  0  2  0  0  0  0  0  0  0  0  0
    4.1770  -12.0815   24.5600 N   0  0  0  0  0  0  0  0  0  0  0  0
    4.3692  -13.5306   25.0240 C   0  0  0  0  0  0  0  0  0  0  0  0
    5.2814  -14.2442   24.9112 O   0  0  0  0  0  0  0  0  0  0  0  0
    3.1566  -13.8996   25.7596 C   0  0  0  0  0  0  0  0  0  0  0  0
    1.9533  -13.1862   25.5889 N   0  0  0  0  0  0  0  0  0  0  0  0
    1.0418  -13.6827   26.3959 C   0  0  0  0  0  0  0  0  0  0  0  0
    1.5596  -14.9343   27.4416 S   0  0  0  0  0  0  0  0  0  0  0  0
    3.0875  -14.8833   26.7135 C   0  0  0  0  0  0  0  0  0  0  0  0
    4.3172  -15.9258   27.2644 Cl  0  0  0  0  0  0  0  0  0  0  0  0
  1  2  1  0
  3  2  1  6
  3  4  1  0
  4  5  1  0
  5  6  1  1
  6  7  1  0
  7  8  2  0
  7  9  1  0
  9 10  1  0
 10 11  2  0
 11 12  1  0
 12 13  1  0
 13 14  1  0
  5  3  1  0
 13  9  2  0
M  END
>  <inchikey>  (1778) 
XIIZOENBBJPQJD-UHFFFAOYSA-N

>  <tags>  (1778) 
fragmenstein_placed,CpKRS_FrAncestor_bulkdock_iter2

>  <ref_pdb>  (1778) 
x0421a

>  <energy_score>  (1778) 
-66.510138

>  <distance_score>  (1778) 
0.67713

>  <HIPPO Pose ID>  (1778) 
62121

>  <ref_mols>  (1778) 
x0421c

>  <smiles>  (1778) 
CC[C@H]1C[C@@H]1NC(=O)c1ncsc1Cl

>  <HIPPO Compound ID>  (1778) 
30532

>  <alias>  (1778) 
XIIZOENBBJPQJD-WDSKDSINSA-N-P13

>  <subsites>  (1778) 


>  <placement_batch>  (1778) 
CpKRS_FrAncestor_bulkdock_iter2

>  <name>  (1778) 
XIIZOENBBJPQJD-WDSKDSINSA-N-P13

$$$$
PDNKZKTXVBZQGV-FSPLSTOPSA-N-P11
     RDKit          3D

 14 15  0  0  0  0  0  0  0  0999 V2000
    5.3242   -8.3424   22.0202 C   0  0  0  0  0  0  0  0  0  0  0  0
    5.2058   -9.8000   21.6222 C   0  0  0  0  0  0  0  0  0  0  0  0
    5.0803  -10.7626   22.7575 C   0  0  1  0  0  0  0  0  0  0  0  0
    5.4756  -10.3555   24.1485 C   0  0  0  0  0  0  0  0  0  0  0  0
    4.0298  -10.6316   23.8304 C   0  0  2  0  0  0  0  0  0  0  0  0
    3.4023  -11.7413   24.4399 N   0  0  0  0  0  0  0  0  0  0  0  0
    4.0009  -13.0666   24.9767 C   0  0  0  0  0  0  0  0  0  0  0  0
    5.0936  -13.4784   24.9281 O   0  0  0  0  0  0  0  0  0  0  0  0
    2.9410  -13.7861   25.7075 C   0  0  0  0  0  0  0  0  0  0  0  0
    1.6496  -13.3862   25.6417 N   0  0  0  0  0  0  0  0  0  0  0  0
    0.9389  -14.2650   26.4444 O   0  0  0  0  0  0  0  0  0  0  0  0
    1.7897  -15.1593   27.0026 C   0  0  0  0  0  0  0  0  0  0  0  0
    3.0589  -14.8799   26.5898 C   0  0  0  0  0  0  0  0  0  0  0  0
    4.6178  -15.7397   27.1317 Br  0  0  0  0  0  0  0  0  0  0  0  0
  1  2  1  0
  3  2  1  6
  3  4  1  0
  4  5  1  0
  5  6  1  1
  6  7  1  0
  7  8  2  0
  7  9  1  0
  9 10  2  0
 10 11  1  0
 11 12  1  0
 12 13  2  0
 13 14  1  0
  5  3  1  0
 13  9  1  0
M  END
>  <inchikey>  (1779) 
PDNKZKTXVBZQGV-UHFFFAOYSA-N

>  <tags>  (1779) 
fragmenstein_placed,CpKRS_FrAncestor_bulkdock_iter2

>  <ref_pdb>  (1779) 
x0421a

>  <energy_score>  (1779) 
-10.479908

>  <distance_score>  (1779) 
0.602402

>  <HIPPO Pose ID>  (1779) 
62135

>  <ref_mols>  (1779) 
x0421a

>  <smiles>  (1779) 
CC[C@H]1C[C@@H]1NC(=O)c1nocc1Br

>  <HIPPO Compound ID>  (1779) 
30536

>  <alias>  (1779) 
PDNKZKTXVBZQGV-FSPLSTOPSA-N-P11

>  <subsites>  (1779) 


>  <placement_batch>  (1779) 
CpKRS_FrAncestor_bulkdock_iter2

>  <name>  (1779) 
PDNKZKTXVBZQGV-FSPLSTOPSA-N-P11

$$$$
XAXODYHFWIMUHK-YUMQZZPRSA-N-P14
     RDKit          3D

 14 15  0  0  0  0  0  0  0  0999 V2000
    5.0539   -8.5211   21.5150 C   0  0  0  0  0  0  0  0  0  0  0  0
    5.2306   -9.1101   22.8940 C   0  0  0  0  0  0  0  0  0  0  0  0
    4.2721  -10.2409   23.0884 C   0  0  1  0  0  0  0  0  0  0  0  0
    4.3537  -11.4630   22.2039 C   0  0  0  0  0  0  0  0  0  0  0  0
    4.7638  -11.5446   23.6378 C   0  0  2  0  0  0  0  0  0  0  0  0
    4.0076  -12.2786   24.5623 N   0  0  0  0  0  0  0  0  0  0  0  0
    4.3609  -13.5464   25.3617 C   0  0  0  0  0  0  0  0  0  0  0  0
    5.3637  -14.1383   25.4367 O   0  0  0  0  0  0  0  0  0  0  0  0
    3.1974  -13.9166   26.1877 C   0  0  0  0  0  0  0  0  0  0  0  0
    2.0337  -13.2369   26.1201 N   0  0  0  0  0  0  0  0  0  0  0  0
    1.2065  -13.8128   27.0639 O   0  0  0  0  0  0  0  0  0  0  0  0
    1.8658  -14.8133   27.6905 C   0  0  0  0  0  0  0  0  0  0  0  0
    3.1274  -14.9456   27.1685 C   0  0  0  0  0  0  0  0  0  0  0  0
    4.1711  -15.9164   27.5489 C   0  0  0  0  0  0  0  0  0  0  0  0
  1  2  1  0
  3  2  1  6
  3  4  1  0
  4  5  1  0
  5  6  1  1
  6  7  1  0
  7  8  2  0
  7  9  1  0
  9 10  2  0
 10 11  1  0
 11 12  1  0
 12 13  2  0
 13 14  1  0
  5  3  1  0
 13  9  1  0
M  END
>  <inchikey>  (1780) 
XAXODYHFWIMUHK-UHFFFAOYSA-N

>  <tags>  (1780) 
fragmenstein_placed,CpKRS_FrAncestor_bulkdock_iter2

>  <ref_pdb>  (1780) 
x0421a

>  <energy_score>  (1780) 
-6.38861

>  <distance_score>  (1780) 
0.805539

>  <HIPPO Pose ID>  (1780) 
62142

>  <ref_mols>  (1780) 
x0421d

>  <smiles>  (1780) 
CC[C@H]1C[C@@H]1NC(=O)c1nocc1C

>  <HIPPO Compound ID>  (1780) 
30537

>  <alias>  (1780) 
XAXODYHFWIMUHK-YUMQZZPRSA-N-P14

>  <subsites>  (1780) 


>  <placement_batch>  (1780) 
CpKRS_FrAncestor_bulkdock_iter2

>  <name>  (1780) 
XAXODYHFWIMUHK-YUMQZZPRSA-N-P14

$$$$
SECKLMDGDUALDT-WPRPVWTQSA-N-P14
     RDKit          3D

 17 18  0  0  0  0  0  0  0  0999 V2000
    5.3573   -8.0624   21.7986 C   0  0  0  0  0  0  0  0  0  0  0  0
    5.0963   -9.5305   21.5206 C   0  0  0  0  0  0  0  0  0  0  0  0
    4.4365  -10.1251   22.7160 C   0  0  2  0  0  0  0  0  0  0  0  0
    5.2742  -10.1392   23.9583 C   0  0  0  0  0  0  0  0  0  0  0  0
    4.8397  -11.4358   23.3217 C   0  0  1  0  0  0  0  0  0  0  0  0
    3.9734  -12.2073   24.1113 N   0  0  0  0  0  0  0  0  0  0  0  0
    4.2626  -13.4053   25.0381 C   0  0  0  0  0  0  0  0  0  0  0  0
    5.2536  -13.9887   25.2321 O   0  0  0  0  0  0  0  0  0  0  0  0
    3.0119  -13.6805   25.7972 C   0  0  0  0  0  0  0  0  0  0  0  0
    1.9403  -12.8976   25.5255 N   0  0  0  0  0  0  0  0  0  0  0  0
    0.9455  -13.2668   26.3802 O   0  0  0  0  0  0  0  0  0  0  0  0
    1.3947  -14.2417   27.1807 C   0  0  0  0  0  0  0  0  0  0  0  0
    2.7009  -14.5840   26.8787 C   0  0  0  0  0  0  0  0  0  0  0  0
    3.4668  -15.6544   27.6354 C   0  0  0  0  0  0  0  0  0  0  0  0
    4.9735  -15.6460   27.4378 C   0  0  0  0  0  0  0  0  0  0  0  0
    2.9721  -17.0513   27.2622 C   0  0  0  0  0  0  0  0  0  0  0  0
    3.1369  -15.5417   29.1447 C   0  0  0  0  0  0  0  0  0  0  0  0
  1  2  1  0
  3  2  1  6
  3  4  1  0
  4  5  1  0
  5  6  1  1
  6  7  1  0
  7  8  2  0
  7  9  1  0
  9 10  2  0
 10 11  1  0
 11 12  1  0
 12 13  2  0
 13 14  1  0
 14 15  1  0
 14 16  1  0
 14 17  1  0
  5  3  1  0
 13  9  1  0
M  END
>  <inchikey>  (1781) 
SECKLMDGDUALDT-UHFFFAOYSA-N

>  <tags>  (1781) 
fragmenstein_placed,CpKRS_FrAncestor_bulkdock_iter2

>  <ref_pdb>  (1781) 
x0421a

>  <energy_score>  (1781) 
-37.327603

>  <distance_score>  (1781) 
0.780207

>  <HIPPO Pose ID>  (1781) 
62146

>  <ref_mols>  (1781) 
x0421d

>  <smiles>  (1781) 
CC[C@H]1C[C@@H]1NC(=O)c1nocc1C(C)(C)C

>  <HIPPO Compound ID>  (1781) 
30538

>  <alias>  (1781) 
SECKLMDGDUALDT-WPRPVWTQSA-N-P14

>  <subsites>  (1781) 


>  <placement_batch>  (1781) 
CpKRS_FrAncestor_bulkdock_iter2

>  <name>  (1781) 
SECKLMDGDUALDT-WPRPVWTQSA-N-P14

$$$$
SVYGTFHPCUWGET-FSPLSTOPSA-N-P11
     RDKit          3D

 14 15  0  0  0  0  0  0  0  0999 V2000
    5.6919   -8.7296   22.0356 C   0  0  0  0  0  0  0  0  0  0  0  0
    5.1676  -10.1490   21.9529 C   0  0  0  0  0  0  0  0  0  0  0  0
    4.5340  -10.5381   23.2459 C   0  0  1  0  0  0  0  0  0  0  0  0
    3.2659   -9.8497   23.6650 C   0  0  0  0  0  0  0  0  0  0  0  0
    3.2413  -11.3021   23.2732 C   0  0  2  0  0  0  0  0  0  0  0  0
    2.9398  -12.2504   24.2631 N   0  0  0  0  0  0  0  0  0  0  0  0
    3.8475  -13.2713   24.9846 C   0  0  0  0  0  0  0  0  0  0  0  0
    5.0025  -13.4316   24.9248 O   0  0  0  0  0  0  0  0  0  0  0  0
    2.9957  -14.0427   25.9053 C   0  0  0  0  0  0  0  0  0  0  0  0
    1.6730  -13.7731   26.0110 N   0  0  0  0  0  0  0  0  0  0  0  0
    1.1750  -14.6845   26.9230 O   0  0  0  0  0  0  0  0  0  0  0  0
    2.1823  -15.4705   27.3697 C   0  0  0  0  0  0  0  0  0  0  0  0
    3.3579  -15.0868   26.7846 C   0  0  0  0  0  0  0  0  0  0  0  0
    4.8964  -15.7232   27.0651 Cl  0  0  0  0  0  0  0  0  0  0  0  0
  1  2  1  0
  3  2  1  6
  3  4  1  0
  4  5  1  0
  5  6  1  1
  6  7  1  0
  7  8  2  0
  7  9  1  0
  9 10  2  0
 10 11  1  0
 11 12  1  0
 12 13  2  0
 13 14  1  0
  5  3  1  0
 13  9  1  0
M  END
>  <inchikey>  (1782) 
SVYGTFHPCUWGET-UHFFFAOYSA-N

>  <tags>  (1782) 
fragmenstein_placed,CpKRS_FrAncestor_bulkdock_iter2

>  <ref_pdb>  (1782) 
x0421a

>  <energy_score>  (1782) 
-14.174309

>  <distance_score>  (1782) 
0.873193

>  <HIPPO Pose ID>  (1782) 
62147

>  <ref_mols>  (1782) 
x0421a

>  <smiles>  (1782) 
CC[C@H]1C[C@@H]1NC(=O)c1nocc1Cl

>  <HIPPO Compound ID>  (1782) 
30539

>  <alias>  (1782) 
SVYGTFHPCUWGET-FSPLSTOPSA-N-P11

>  <subsites>  (1782) 


>  <placement_batch>  (1782) 
CpKRS_FrAncestor_bulkdock_iter2

>  <name>  (1782) 
SVYGTFHPCUWGET-FSPLSTOPSA-N-P11

$$$$
NITLUMYTQORTSA-FSPLSTOPSA-N-P13
     RDKit          3D

 14 15  0  0  0  0  0  0  0  0999 V2000
    5.7724   -8.2300   22.1742 C   0  0  0  0  0  0  0  0  0  0  0  0
    5.0563   -9.5408   21.9435 C   0  0  0  0  0  0  0  0  0  0  0  0
    4.7450  -10.2000   23.2424 C   0  0  1  0  0  0  0  0  0  0  0  0
    4.0459   -9.4099   24.3160 C   0  0  0  0  0  0  0  0  0  0  0  0
    3.3293  -10.5346   23.6276 C   0  0  2  0  0  0  0  0  0  0  0  0
    2.9845  -11.6653   24.3869 N   0  0  0  0  0  0  0  0  0  0  0  0
    3.8016  -12.9293   24.7315 C   0  0  0  0  0  0  0  0  0  0  0  0
    4.8607  -13.2651   24.3757 O   0  0  0  0  0  0  0  0  0  0  0  0
    2.9900  -13.7444   25.6700 C   0  0  0  0  0  0  0  0  0  0  0  0
    1.7188  -13.3663   25.9141 N   0  0  0  0  0  0  0  0  0  0  0  0
    1.0401  -14.3832   27.0209 S   0  0  0  0  0  0  0  0  0  0  0  0
    2.3997  -15.3915   27.2035 C   0  0  0  0  0  0  0  0  0  0  0  0
    3.4002  -14.9094   26.3939 C   0  0  0  0  0  0  0  0  0  0  0  0
    5.1072  -15.6981   26.2997 Br  0  0  0  0  0  0  0  0  0  0  0  0
  1  2  1  0
  3  2  1  6
  3  4  1  0
  4  5  1  0
  5  6  1  1
  6  7  1  0
  7  8  2  0
  7  9  1  0
  9 10  2  0
 10 11  1  0
 11 12  1  0
 12 13  2  0
 13 14  1  0
  5  3  1  0
 13  9  1  0
M  END
>  <inchikey>  (1783) 
NITLUMYTQORTSA-UHFFFAOYSA-N

>  <tags>  (1783) 
fragmenstein_placed,CpKRS_FrAncestor_bulkdock_iter2

>  <ref_pdb>  (1783) 
x0421a

>  <energy_score>  (1783) 
-21.498933

>  <distance_score>  (1783) 
0.880219

>  <HIPPO Pose ID>  (1783) 
62153

>  <ref_mols>  (1783) 
x0421c

>  <smiles>  (1783) 
CC[C@H]1C[C@@H]1NC(=O)c1nscc1Br

>  <HIPPO Compound ID>  (1783) 
30540

>  <alias>  (1783) 
NITLUMYTQORTSA-FSPLSTOPSA-N-P13

>  <subsites>  (1783) 


>  <placement_batch>  (1783) 
CpKRS_FrAncestor_bulkdock_iter2

>  <name>  (1783) 
NITLUMYTQORTSA-FSPLSTOPSA-N-P13

$$$$
RVCUCVDCDRULMI-YUMQZZPRSA-N-P13
     RDKit          3D

 14 15  0  0  0  0  0  0  0  0999 V2000
    5.5135   -8.0565   22.2641 C   0  0  0  0  0  0  0  0  0  0  0  0
    5.2724   -9.4520   21.7239 C   0  0  0  0  0  0  0  0  0  0  0  0
    5.1410  -10.5130   22.7661 C   0  0  1  0  0  0  0  0  0  0  0  0
    5.6025  -10.2441   24.1691 C   0  0  0  0  0  0  0  0  0  0  0  0
    4.1376  -10.4473   23.8889 C   0  0  2  0  0  0  0  0  0  0  0  0
    3.5203  -11.5815   24.4627 N   0  0  0  0  0  0  0  0  0  0  0  0
    4.0861  -12.9909   24.7610 C   0  0  0  0  0  0  0  0  0  0  0  0
    5.1270  -13.4579   24.5084 O   0  0  0  0  0  0  0  0  0  0  0  0
    3.0907  -13.7339   25.5780 C   0  0  0  0  0  0  0  0  0  0  0  0
    1.8546  -13.2282   25.7307 N   0  0  0  0  0  0  0  0  0  0  0  0
    0.9907  -14.1929   26.7519 S   0  0  0  0  0  0  0  0  0  0  0  0
    2.2337  -15.3191   27.0348 C   0  0  0  0  0  0  0  0  0  0  0  0
    3.3534  -14.9571   26.3105 C   0  0  0  0  0  0  0  0  0  0  0  0
    4.6449  -15.6995   26.3232 C   0  0  0  0  0  0  0  0  0  0  0  0
  1  2  1  0
  3  2  1  6
  3  4  1  0
  4  5  1  0
  5  6  1  1
  6  7  1  0
  7  8  2  0
  7  9  1  0
  9 10  2  0
 10 11  1  0
 11 12  1  0
 12 13  2  0
 13 14  1  0
  5  3  1  0
 13  9  1  0
M  END
>  <inchikey>  (1784) 
RVCUCVDCDRULMI-UHFFFAOYSA-N

>  <tags>  (1784) 
fragmenstein_placed,CpKRS_FrAncestor_bulkdock_iter2

>  <ref_pdb>  (1784) 
x0421a

>  <energy_score>  (1784) 
-15.338459

>  <distance_score>  (1784) 
0.621647

>  <HIPPO Pose ID>  (1784) 
62157

>  <ref_mols>  (1784) 
x0421c

>  <smiles>  (1784) 
CC[C@H]1C[C@@H]1NC(=O)c1nscc1C

>  <HIPPO Compound ID>  (1784) 
30541

>  <alias>  (1784) 
RVCUCVDCDRULMI-YUMQZZPRSA-N-P13

>  <subsites>  (1784) 


>  <placement_batch>  (1784) 
CpKRS_FrAncestor_bulkdock_iter2

>  <name>  (1784) 
RVCUCVDCDRULMI-YUMQZZPRSA-N-P13

$$$$
YYFOIGLQHZWAGQ-WDSKDSINSA-N-P20
     RDKit          3D

 14 15  0  0  0  0  0  0  0  0999 V2000
    2.7611    3.5709   47.1655 C   0  0  0  0  0  0  0  0  0  0  0  0
    3.2319    4.5305   46.0919 C   0  0  0  0  0  0  0  0  0  0  0  0
    2.4376    5.7900   46.1719 C   0  0  2  0  0  0  0  0  0  0  0  0
    1.1055    5.7844   45.4911 C   0  0  0  0  0  0  0  0  0  0  0  0
    2.1411    6.7582   45.0580 C   0  0  2  0  0  0  0  0  0  0  0  0
    2.8279    6.7823   43.8270 N   0  0  0  0  0  0  0  0  0  0  0  0
    3.2030    5.6263   42.8569 C   0  0  0  0  0  0  0  0  0  0  0  0
    2.9320    4.4881   42.8931 O   0  0  0  0  0  0  0  0  0  0  0  0
    4.1088    6.2029   41.8504 C   0  0  0  0  0  0  0  0  0  0  0  0
    4.2895    7.5092   41.7563 N   0  0  0  0  0  0  0  0  0  0  0  0
    5.1357    7.7694   40.7032 C   0  0  0  0  0  0  0  0  0  0  0  0
    5.4708    9.5600   40.2044 Br  0  0  0  0  0  0  0  0  0  0  0  0
    5.7000    6.6718   40.0930 C   0  0  0  0  0  0  0  0  0  0  0  0
    5.1098    5.2390   40.8381 S   0  0  0  0  0  0  0  0  0  0  0  0
  1  2  1  0
  3  2  1  6
  3  4  1  0
  4  5  1  0
  5  6  1  6
  6  7  1  0
  7  8  2  0
  7  9  1  0
  9 10  2  0
 10 11  1  0
 11 12  1  0
 11 13  2  0
 13 14  1  0
  5  3  1  0
 14  9  1  0
M  END
>  <inchikey>  (1785) 
YYFOIGLQHZWAGQ-UHFFFAOYSA-N

>  <tags>  (1785) 
fragmenstein_placed,CpKRS_FrAncestor_bulkdock_iter2

>  <ref_pdb>  (1785) 
x0421a

>  <energy_score>  (1785) 
-60.411507

>  <distance_score>  (1785) 
0.798355

>  <HIPPO Pose ID>  (1785) 
62162

>  <ref_mols>  (1785) 
x0456a

>  <smiles>  (1785) 
CC[C@H]1C[C@@H]1NC(=O)c1nc(Br)cs1

>  <HIPPO Compound ID>  (1785) 
30545

>  <alias>  (1785) 
YYFOIGLQHZWAGQ-WDSKDSINSA-N-P20

>  <subsites>  (1785) 


>  <placement_batch>  (1785) 
CpKRS_FrAncestor_bulkdock_iter2

>  <name>  (1785) 
YYFOIGLQHZWAGQ-WDSKDSINSA-N-P20

$$$$
PRTOTOZBZXOUBC-WDSKDSINSA-N-P20
     RDKit          3D

 14 15  0  0  0  0  0  0  0  0999 V2000
    2.7073    3.4548   47.2241 C   0  0  0  0  0  0  0  0  0  0  0  0
    3.0599    4.5010   46.1979 C   0  0  0  0  0  0  0  0  0  0  0  0
    2.2262    5.7143   46.4320 C   0  0  2  0  0  0  0  0  0  0  0  0
    0.9217    5.8578   45.7229 C   0  0  0  0  0  0  0  0  0  0  0  0
    2.0198    6.8244   45.4420 C   0  0  2  0  0  0  0  0  0  0  0  0
    2.7227    6.8732   44.2297 N   0  0  0  0  0  0  0  0  0  0  0  0
    2.9452    5.7849   43.1521 C   0  0  0  0  0  0  0  0  0  0  0  0
    2.5135    4.7016   43.0689 O   0  0  0  0  0  0  0  0  0  0  0  0
    3.9134    6.3098   42.2027 C   0  0  0  0  0  0  0  0  0  0  0  0
    4.2306    7.5946   42.1224 N   0  0  0  0  0  0  0  0  0  0  0  0
    5.0064    7.7703   40.9934 C   0  0  0  0  0  0  0  0  0  0  0  0
    5.3385    6.6048   40.3560 C   0  0  0  0  0  0  0  0  0  0  0  0
    6.2491    6.4842   38.7333 Br  0  0  0  0  0  0  0  0  0  0  0  0
    4.8065    5.2465   41.2008 S   0  0  0  0  0  0  0  0  0  0  0  0
  1  2  1  0
  3  2  1  6
  3  4  1  0
  4  5  1  0
  5  6  1  6
  6  7  1  0
  7  8  2  0
  7  9  1  0
  9 10  2  0
 10 11  1  0
 11 12  2  0
 12 13  1  0
 12 14  1  0
  5  3  1  0
 14  9  1  0
M  END
>  <inchikey>  (1786) 
PRTOTOZBZXOUBC-UHFFFAOYSA-N

>  <tags>  (1786) 
fragmenstein_placed,CpKRS_FrAncestor_bulkdock_iter2

>  <ref_pdb>  (1786) 
x0421a

>  <energy_score>  (1786) 
-14.49554

>  <distance_score>  (1786) 
0.893902

>  <HIPPO Pose ID>  (1786) 
62163

>  <ref_mols>  (1786) 
x0456a

>  <smiles>  (1786) 
CC[C@H]1C[C@@H]1NC(=O)c1ncc(Br)s1

>  <HIPPO Compound ID>  (1786) 
30546

>  <alias>  (1786) 
PRTOTOZBZXOUBC-WDSKDSINSA-N-P20

>  <subsites>  (1786) 


>  <placement_batch>  (1786) 
CpKRS_FrAncestor_bulkdock_iter2

>  <name>  (1786) 
PRTOTOZBZXOUBC-WDSKDSINSA-N-P20

$$$$
AUZANDLIGZXGSL-WDSKDSINSA-N-P20
     RDKit          3D

 14 15  0  0  0  0  0  0  0  0999 V2000
    3.1932    3.5184   46.5535 C   0  0  0  0  0  0  0  0  0  0  0  0
    2.0352    4.3768   47.0380 C   0  0  0  0  0  0  0  0  0  0  0  0
    1.6582    5.3387   45.9631 C   0  0  1  0  0  0  0  0  0  0  0  0
    1.2235    6.7671   46.1390 C   0  0  0  0  0  0  0  0  0  0  0  0
    2.6152    6.4689   45.6913 C   0  0  2  0  0  0  0  0  0  0  0  0
    3.0845    6.5783   44.3717 N   0  0  0  0  0  0  0  0  0  0  0  0
    3.4668    5.4820   43.3457 C   0  0  0  0  0  0  0  0  0  0  0  0
    3.3775    4.3185   43.4122 O   0  0  0  0  0  0  0  0  0  0  0  0
    4.1096    6.1255   42.2015 C   0  0  0  0  0  0  0  0  0  0  0  0
    4.2236    7.4397   42.0708 N   0  0  0  0  0  0  0  0  0  0  0  0
    4.8978    7.7013   40.8883 C   0  0  0  0  0  0  0  0  0  0  0  0
    5.3400    6.5862   40.2259 C   0  0  0  0  0  0  0  0  0  0  0  0
    6.1748    6.4863   38.7591 Cl  0  0  0  0  0  0  0  0  0  0  0  0
    4.9693    5.1690   41.0589 S   0  0  0  0  0  0  0  0  0  0  0  0
  1  2  1  0
  3  2  1  1
  3  4  1  0
  4  5  1  0
  5  6  1  6
  6  7  1  0
  7  8  2  0
  7  9  1  0
  9 10  2  0
 10 11  1  0
 11 12  2  0
 12 13  1  0
 12 14  1  0
  5  3  1  0
 14  9  1  0
M  END
>  <inchikey>  (1787) 
AUZANDLIGZXGSL-UHFFFAOYSA-N

>  <tags>  (1787) 
fragmenstein_placed,CpKRS_FrAncestor_bulkdock_iter2

>  <ref_pdb>  (1787) 
x0421a

>  <energy_score>  (1787) 
-57.934625

>  <distance_score>  (1787) 
0.745169

>  <HIPPO Pose ID>  (1787) 
62164

>  <ref_mols>  (1787) 
x0456a

>  <smiles>  (1787) 
CC[C@H]1C[C@@H]1NC(=O)c1ncc(Cl)s1

>  <HIPPO Compound ID>  (1787) 
30547

>  <alias>  (1787) 
AUZANDLIGZXGSL-WDSKDSINSA-N-P20

>  <subsites>  (1787) 


>  <placement_batch>  (1787) 
CpKRS_FrAncestor_bulkdock_iter2

>  <name>  (1787) 
AUZANDLIGZXGSL-WDSKDSINSA-N-P20

$$$$
BHQYMNOWUVBRGA-YUMQZZPRSA-N-P20
     RDKit          3D

 14 15  0  0  0  0  0  0  0  0999 V2000
    2.7594    3.5247   47.1351 C   0  0  0  0  0  0  0  0  0  0  0  0
    3.1617    4.5530   46.0995 C   0  0  0  0  0  0  0  0  0  0  0  0
    2.3471    5.7882   46.2929 C   0  0  2  0  0  0  0  0  0  0  0  0
    1.0131    5.8547   45.6241 C   0  0  0  0  0  0  0  0  0  0  0  0
    2.0626    6.8466   45.2625 C   0  0  2  0  0  0  0  0  0  0  0  0
    2.7487    6.9121   44.0375 N   0  0  0  0  0  0  0  0  0  0  0  0
    2.9833    5.8270   42.9552 C   0  0  0  0  0  0  0  0  0  0  0  0
    2.5770    4.7326   42.8785 O   0  0  0  0  0  0  0  0  0  0  0  0
    3.9332    6.3778   41.9913 C   0  0  0  0  0  0  0  0  0  0  0  0
    4.3308    7.6432   41.9251 N   0  0  0  0  0  0  0  0  0  0  0  0
    5.2275    7.6415   40.8821 C   0  0  0  0  0  0  0  0  0  0  0  0
    5.4058    6.3589   40.4243 C   0  0  0  0  0  0  0  0  0  0  0  0
    6.2530    5.7127   39.4238 C   0  0  0  0  0  0  0  0  0  0  0  0
    4.5962    5.5347   41.1446 O   0  0  0  0  0  0  0  0  0  0  0  0
  1  2  1  0
  3  2  1  6
  3  4  1  0
  4  5  1  0
  5  6  1  6
  6  7  1  0
  7  8  2  0
  7  9  1  0
  9 10  2  0
 10 11  1  0
 11 12  2  0
 12 13  1  0
 12 14  1  0
  5  3  1  0
 14  9  1  0
M  END
>  <inchikey>  (1788) 
BHQYMNOWUVBRGA-UHFFFAOYSA-N

>  <tags>  (1788) 
fragmenstein_placed,CpKRS_FrAncestor_bulkdock_iter2

>  <ref_pdb>  (1788) 
x0421a

>  <energy_score>  (1788) 
-5.277516

>  <distance_score>  (1788) 
0.853381

>  <HIPPO Pose ID>  (1788) 
62165

>  <ref_mols>  (1788) 
x0456a

>  <smiles>  (1788) 
CC[C@H]1C[C@@H]1NC(=O)c1ncc(C)o1

>  <HIPPO Compound ID>  (1788) 
30548

>  <alias>  (1788) 
BHQYMNOWUVBRGA-YUMQZZPRSA-N-P20

>  <subsites>  (1788) 


>  <placement_batch>  (1788) 
CpKRS_FrAncestor_bulkdock_iter2

>  <name>  (1788) 
BHQYMNOWUVBRGA-YUMQZZPRSA-N-P20

$$$$
MOZALKWLXKLDOD-YUMQZZPRSA-N-P20
     RDKit          3D

 14 15  0  0  0  0  0  0  0  0999 V2000
    3.3190    3.4827   46.3914 C   0  0  0  0  0  0  0  0  0  0  0  0
    2.1744    4.3572   46.8785 C   0  0  0  0  0  0  0  0  0  0  0  0
    1.8052    5.3198   45.7986 C   0  0  1  0  0  0  0  0  0  0  0  0
    1.3972    6.7511   46.0161 C   0  0  0  0  0  0  0  0  0  0  0  0
    2.7684    6.4341   45.5092 C   0  0  2  0  0  0  0  0  0  0  0  0
    3.1795    6.6483   44.1809 N   0  0  0  0  0  0  0  0  0  0  0  0
    3.5648    5.6341   43.0676 C   0  0  0  0  0  0  0  0  0  0  0  0
    3.5249    4.4646   43.0608 O   0  0  0  0  0  0  0  0  0  0  0  0
    4.1314    6.3930   41.9523 C   0  0  0  0  0  0  0  0  0  0  0  0
    4.2709    7.7106   41.9327 N   0  0  0  0  0  0  0  0  0  0  0  0
    4.9851    7.9467   40.7797 C   0  0  0  0  0  0  0  0  0  0  0  0
    5.3267    9.3201   40.3653 C   0  0  0  0  0  0  0  0  0  0  0  0
    5.2971    6.7502   40.1756 C   0  0  0  0  0  0  0  0  0  0  0  0
    4.7687    5.7434   40.9266 O   0  0  0  0  0  0  0  0  0  0  0  0
  1  2  1  0
  3  2  1  1
  3  4  1  0
  4  5  1  0
  5  6  1  6
  6  7  1  0
  7  8  2  0
  7  9  1  0
  9 10  2  0
 10 11  1  0
 11 12  1  0
 11 13  2  0
 13 14  1  0
  5  3  1  0
 14  9  1  0
M  END
>  <inchikey>  (1789) 
MOZALKWLXKLDOD-UHFFFAOYSA-N

>  <tags>  (1789) 
fragmenstein_placed,CpKRS_FrAncestor_bulkdock_iter2

>  <ref_pdb>  (1789) 
x0421a

>  <energy_score>  (1789) 
-18.2648

>  <distance_score>  (1789) 
0.723016

>  <HIPPO Pose ID>  (1789) 
62166

>  <ref_mols>  (1789) 
x0456a

>  <smiles>  (1789) 
CC[C@H]1C[C@@H]1NC(=O)c1nc(C)co1

>  <HIPPO Compound ID>  (1789) 
30549

>  <alias>  (1789) 
MOZALKWLXKLDOD-YUMQZZPRSA-N-P20

>  <subsites>  (1789) 


>  <placement_batch>  (1789) 
CpKRS_FrAncestor_bulkdock_iter2

>  <name>  (1789) 
MOZALKWLXKLDOD-YUMQZZPRSA-N-P20

$$$$
VHNTTYXELFGLAU-YUMQZZPRSA-N-P20
     RDKit          3D

 14 15  0  0  0  0  0  0  0  0999 V2000
    3.3164    3.4745   46.3877 C   0  0  0  0  0  0  0  0  0  0  0  0
    2.1953    4.3950   46.8427 C   0  0  0  0  0  0  0  0  0  0  0  0
    1.8698    5.3466   45.7389 C   0  0  1  0  0  0  0  0  0  0  0  0
    1.5307    6.8007   45.9230 C   0  0  0  0  0  0  0  0  0  0  0  0
    2.8847    6.4065   45.4210 C   0  0  2  0  0  0  0  0  0  0  0  0
    3.3107    6.5700   44.0897 N   0  0  0  0  0  0  0  0  0  0  0  0
    3.6455    5.5135   43.0005 C   0  0  0  0  0  0  0  0  0  0  0  0
    3.5443    4.3480   43.0188 O   0  0  0  0  0  0  0  0  0  0  0  0
    4.2558    6.2305   41.8708 C   0  0  0  0  0  0  0  0  0  0  0  0
    4.3098    7.5518   41.8250 N   0  0  0  0  0  0  0  0  0  0  0  0
    5.0550    7.9460   40.7248 C   0  0  0  0  0  0  0  0  0  0  0  0
    5.2258    9.3956   40.4630 C   0  0  0  0  0  0  0  0  0  0  0  0
    5.5975    6.9112   39.9857 C   0  0  0  0  0  0  0  0  0  0  0  0
    5.1673    5.4017   40.6723 S   0  0  0  0  0  0  0  0  0  0  0  0
  1  2  1  0
  3  2  1  1
  3  4  1  0
  4  5  1  0
  5  6  1  6
  6  7  1  0
  7  8  2  0
  7  9  1  0
  9 10  2  0
 10 11  1  0
 11 12  1  0
 11 13  2  0
 13 14  1  0
  5  3  1  0
 14  9  1  0
M  END
>  <inchikey>  (1790) 
VHNTTYXELFGLAU-UHFFFAOYSA-N

>  <tags>  (1790) 
fragmenstein_placed,CpKRS_FrAncestor_bulkdock_iter2

>  <ref_pdb>  (1790) 
x0421a

>  <energy_score>  (1790) 
-58.372275

>  <distance_score>  (1790) 
0.753094

>  <HIPPO Pose ID>  (1790) 
62167

>  <ref_mols>  (1790) 
x0456a

>  <smiles>  (1790) 
CC[C@H]1C[C@@H]1NC(=O)c1nc(C)cs1

>  <HIPPO Compound ID>  (1790) 
30550

>  <alias>  (1790) 
VHNTTYXELFGLAU-YUMQZZPRSA-N-P20

>  <subsites>  (1790) 


>  <placement_batch>  (1790) 
CpKRS_FrAncestor_bulkdock_iter2

>  <name>  (1790) 
VHNTTYXELFGLAU-YUMQZZPRSA-N-P20

$$$$
HSZPFTUKTQHKQZ-BQBZGAKWSA-N-P44
     RDKit          3D

 13 14  0  0  0  0  0  0  0  0999 V2000
  -13.0073  -17.6951   42.9561 C   0  0  0  0  0  0  0  0  0  0  0  0
  -12.3572  -17.5046   44.3136 C   0  0  0  0  0  0  0  0  0  0  0  0
  -11.8009  -16.1220   44.4796 C   0  0  1  0  0  0  0  0  0  0  0  0
  -12.7311  -14.9414   44.5140 C   0  0  0  0  0  0  0  0  0  0  0  0
  -12.0299  -15.3752   45.7709 C   0  0  2  0  0  0  0  0  0  0  0  0
  -11.0479  -14.5601   46.3823 N   0  0  0  0  0  0  0  0  0  0  0  0
  -10.8160  -13.0269   46.2994 C   0  0  0  0  0  0  0  0  0  0  0  0
  -11.4462  -12.1930   45.7756 O   0  0  0  0  0  0  0  0  0  0  0  0
   -9.6622  -12.6494   47.1052 C   0  0  0  0  0  0  0  0  0  0  0  0
   -8.9963  -13.2194   48.1719 C   0  0  0  0  0  0  0  0  0  0  0  0
   -7.9970  -12.3889   48.6188 N   0  0  0  0  0  0  0  0  0  0  0  0
   -8.0780  -11.3600   47.8087 C   0  0  0  0  0  0  0  0  0  0  0  0
   -9.0612  -11.4313   46.8746 O   0  0  0  0  0  0  0  0  0  0  0  0
  1  2  1  0
  3  2  1  1
  3  4  1  0
  4  5  1  0
  5  6  1  6
  6  7  1  0
  7  8  2  0
  7  9  1  0
  9 10  2  0
 10 11  1  0
 11 12  2  0
 12 13  1  0
  5  3  1  0
 13  9  1  0
M  END
>  <inchikey>  (1791) 
HSZPFTUKTQHKQZ-UHFFFAOYSA-N

>  <tags>  (1791) 
fragmenstein_placed,CpKRS_FrAncestor_bulkdock_iter2

>  <ref_pdb>  (1791) 
x0421a

>  <energy_score>  (1791) 
-4.01106

>  <distance_score>  (1791) 
0.620669

>  <HIPPO Pose ID>  (1791) 
62170

>  <ref_mols>  (1791) 
x0502b

>  <smiles>  (1791) 
CC[C@H]1C[C@@H]1NC(=O)c1cnco1

>  <HIPPO Compound ID>  (1791) 
30552

>  <alias>  (1791) 
HSZPFTUKTQHKQZ-BQBZGAKWSA-N-P44

>  <subsites>  (1791) 


>  <placement_batch>  (1791) 
CpKRS_FrAncestor_bulkdock_iter2

>  <name>  (1791) 
HSZPFTUKTQHKQZ-BQBZGAKWSA-N-P44

$$$$
UASAVWBWHAUANG-BQBZGAKWSA-N-P44
     RDKit          3D

 13 14  0  0  0  0  0  0  0  0999 V2000
  -13.5785  -17.7139   43.7164 C   0  0  0  0  0  0  0  0  0  0  0  0
  -12.0920  -17.4062   43.7303 C   0  0  0  0  0  0  0  0  0  0  0  0
  -11.7201  -15.9873   44.0478 C   0  0  1  0  0  0  0  0  0  0  0  0
  -12.7266  -14.8761   44.1756 C   0  0  0  0  0  0  0  0  0  0  0  0
  -12.0274  -15.3958   45.4035 C   0  0  2  0  0  0  0  0  0  0  0  0
  -11.1010  -14.5833   46.1000 N   0  0  0  0  0  0  0  0  0  0  0  0
  -11.0467  -13.0432   46.2782 C   0  0  0  0  0  0  0  0  0  0  0  0
  -11.8002  -12.2153   45.9427 O   0  0  0  0  0  0  0  0  0  0  0  0
   -9.8724  -12.6738   47.0643 C   0  0  0  0  0  0  0  0  0  0  0  0
   -9.2757  -13.2901   48.1486 C   0  0  0  0  0  0  0  0  0  0  0  0
   -8.1960  -12.6264   48.7054 N   0  0  0  0  0  0  0  0  0  0  0  0
   -7.9722  -11.5264   48.0231 C   0  0  0  0  0  0  0  0  0  0  0  0
   -9.0383  -11.2087   46.7218 S   0  0  0  0  0  0  0  0  0  0  0  0
  1  2  1  0
  3  2  1  1
  3  4  1  0
  4  5  1  0
  5  6  1  6
  6  7  1  0
  7  8  2  0
  7  9  1  0
  9 10  2  0
 10 11  1  0
 11 12  2  0
 12 13  1  0
  5  3  1  0
 13  9  1  0
M  END
>  <inchikey>  (1792) 
UASAVWBWHAUANG-UHFFFAOYSA-N

>  <tags>  (1792) 
fragmenstein_placed,CpKRS_FrAncestor_bulkdock_iter2

>  <ref_pdb>  (1792) 
x0421a

>  <energy_score>  (1792) 
-21.815308

>  <distance_score>  (1792) 
0.483401

>  <HIPPO Pose ID>  (1792) 
62173

>  <ref_mols>  (1792) 
x0502b

>  <smiles>  (1792) 
CC[C@H]1C[C@@H]1NC(=O)c1cncs1

>  <HIPPO Compound ID>  (1792) 
30553

>  <alias>  (1792) 
UASAVWBWHAUANG-BQBZGAKWSA-N-P44

>  <subsites>  (1792) 


>  <placement_batch>  (1792) 
CpKRS_FrAncestor_bulkdock_iter2

>  <name>  (1792) 
UASAVWBWHAUANG-BQBZGAKWSA-N-P44

$$$$
ALZZUKUBEUYUIL-RGURZIINSA-N-P6
     RDKit          3D

 13 14  0  0  0  0  0  0  0  0999 V2000
    6.1928   -6.9200   24.5319 C   0  0  0  0  0  0  0  0  0  0  0  0
    5.9037   -8.0608   23.5614 C   0  0  0  0  0  0  0  0  0  0  0  0
    4.8878   -9.1173   24.0544 C   0  0  2  0  0  0  0  0  0  0  0  0
    3.5903   -8.4750   24.3103 N   0  0  0  0  0  0  0  0  0  0  0  0
    5.5384   -9.9650   25.1993 C   0  0  0  0  0  0  0  0  0  0  0  0
    4.8845  -10.9175   26.0883 N   0  0  0  0  0  0  0  0  0  0  0  0
    3.9263  -10.3118   27.0089 C   0  0  0  0  0  0  0  0  0  0  0  0
    2.8010  -11.1653   26.4044 C   0  0  0  0  0  0  0  0  0  0  0  0
    3.9086  -11.8823   25.5888 C   0  0  1  0  0  0  0  0  0  0  0  0
    3.6944  -12.0931   24.1140 C   0  0  0  0  0  0  0  0  0  0  0  0
    2.9431  -13.4149   24.1262 C   0  0  0  0  0  0  0  0  0  0  0  0
    3.4631  -14.1809   25.2221 O   0  0  0  0  0  0  0  0  0  0  0  0
    4.1858  -13.2984   26.0885 C   0  0  0  0  0  0  0  0  0  0  0  0
  1  2  1  0
  2  3  1  0
  3  4  1  1
  3  5  1  0
  5  6  1  0
  6  7  1  0
  7  8  1  0
  9  8  1  1
  9 10  1  0
 10 11  1  0
 11 12  1  0
 12 13  1  0
  9  6  1  0
 13  9  1  0
M  END
>  <inchikey>  (1793) 
ALZZUKUBEUYUIL-UHFFFAOYSA-N

>  <tags>  (1793) 
fragmenstein_placed,CpKRS_FrAncestor_bulkdock_iter2

>  <ref_pdb>  (1793) 
x0421a

>  <energy_score>  (1793) 
-24.209316

>  <distance_score>  (1793) 
0.947502

>  <HIPPO Pose ID>  (1793) 
62189

>  <ref_mols>  (1793) 
x0414a

>  <smiles>  (1793) 
CC[C@H](N)CN1CCC12CCOC2

>  <HIPPO Compound ID>  (1793) 
30554

>  <alias>  (1793) 
ALZZUKUBEUYUIL-RGURZIINSA-N-P6

>  <subsites>  (1793) 


>  <placement_batch>  (1793) 
CpKRS_FrAncestor_bulkdock_iter2

>  <name>  (1793) 
ALZZUKUBEUYUIL-RGURZIINSA-N-P6

$$$$
NVOJEJGGYBOFHD-GVHYBUMESA-N-P7
     RDKit          3D

 11 11  0  0  0  0  0  0  0  0999 V2000
    3.0578   -9.5542   23.4486 C   0  0  0  0  0  0  0  0  0  0  0  0
    4.2518   -8.6465   23.7104 C   0  0  0  0  0  0  0  0  0  0  0  0
    5.5498   -9.3397   24.1318 C   0  0  1  0  0  0  0  0  0  0  0  0
    6.6148   -8.3200   24.1060 N   0  0  0  0  0  0  0  0  0  0  0  0
    5.4827  -10.0086   25.5272 C   0  0  0  0  0  0  0  0  0  0  0  0
    4.4329  -11.0290   25.6155 N   0  0  0  0  0  0  0  0  0  0  0  0
    4.8283  -12.2966   24.9680 C   0  0  0  0  0  0  0  0  0  0  0  0
    5.3033  -12.8257   26.3234 C   0  0  0  0  0  0  0  0  0  0  0  0
    4.4375  -11.6996   26.9450 C   0  0  2  0  0  0  0  0  0  0  0  0
    3.1146  -12.1538   27.3370 C   0  0  0  0  0  0  0  0  0  0  0  0
    2.1026  -12.6403   27.6231 N   0  0  0  0  0  0  0  0  0  0  0  0
  1  2  1  0
  2  3  1  0
  3  4  1  1
  3  5  1  0
  5  6  1  0
  6  7  1  0
  7  8  1  0
  8  9  1  0
  9 10  1  6
 10 11  3  0
  9  6  1  0
M  END
>  <inchikey>  (1794) 
NVOJEJGGYBOFHD-UHFFFAOYSA-N

>  <tags>  (1794) 
fragmenstein_placed,CpKRS_FrAncestor_bulkdock_iter2

>  <ref_pdb>  (1794) 
x0421a

>  <energy_score>  (1794) 
-18.189226

>  <distance_score>  (1794) 
0.908042

>  <HIPPO Pose ID>  (1794) 
62194

>  <ref_mols>  (1794) 
x0414b

>  <smiles>  (1794) 
CC[C@@H](N)CN1CCC1C#N

>  <HIPPO Compound ID>  (1794) 
30555

>  <alias>  (1794) 
NVOJEJGGYBOFHD-GVHYBUMESA-N-P7

>  <subsites>  (1794) 


>  <placement_batch>  (1794) 
CpKRS_FrAncestor_bulkdock_iter2

>  <name>  (1794) 
NVOJEJGGYBOFHD-GVHYBUMESA-N-P7

$$$$
HXWNRMYBUBWBSF-SBXXRYSUSA-N-P38
     RDKit          3D

 20 21  0  0  0  0  0  0  0  0999 V2000
    6.9638   -9.3915   24.7021 C   0  0  0  0  0  0  0  0  0  0  0  0
    6.1188  -10.1056   24.2412 C   0  0  0  0  0  0  0  0  0  0  0  0
    4.9635  -10.7200   23.5893 C   0  0  1  0  0  0  0  0  0  0  0  0
    4.3168  -11.6944   24.4261 N   0  0  0  0  0  0  0  0  0  0  0  0
    4.7556  -13.0989   24.8359 C   0  0  0  0  0  0  0  0  0  0  0  0
    5.7448  -13.6687   24.6276 O   0  0  0  0  0  0  0  0  0  0  0  0
    3.6999  -13.7775   25.6624 C   0  0  0  0  0  0  0  0  0  0  0  0
    4.0984  -14.8074   26.5267 C   0  0  0  0  0  0  0  0  0  0  0  0
    3.1760  -15.4350   27.3746 C   0  0  0  0  0  0  0  0  0  0  0  0
    1.8299  -15.0770   27.3441 C   0  0  0  0  0  0  0  0  0  0  0  0
    1.4262  -14.1070   26.4459 C   0  0  0  0  0  0  0  0  0  0  0  0
    2.3487  -13.4511   25.6408 C   0  0  0  0  0  0  0  0  0  0  0  0
    1.7571  -12.5075   24.8313 O   0  0  0  0  0  0  0  0  0  0  0  0
    0.4039  -12.3851   25.3383 C   0  0  1  0  0  0  0  0  0  0  0  0
   -0.5423  -12.0974   24.1856 C   0  0  0  0  0  0  0  0  0  0  0  0
    0.0597  -13.6842   26.0688 C   0  0  0  0  0  0  0  0  0  0  0  0
    4.0083   -9.5597   23.2083 C   0  0  0  0  0  0  0  0  0  0  0  0
    4.4886   -8.9531   21.8786 C   0  0  0  0  0  0  0  0  0  0  0  0
    2.5543  -10.0317   23.1039 C   0  0  0  0  0  0  0  0  0  0  0  0
    3.9763   -8.4576   24.2833 C   0  0  0  0  0  0  0  0  0  0  0  0
  1  2  3  0
  3  2  1  1
  3  4  1  0
  4  5  1  0
  5  6  2  0
  5  7  1  0
  7  8  2  0
  8  9  1  0
  9 10  2  0
 10 11  1  0
 11 12  2  0
 12 13  1  0
 13 14  1  0
 14 15  1  6
 14 16  1  0
  3 17  1  0
 17 18  1  0
 17 19  1  0
 17 20  1  0
 12  7  1  0
 16 11  1  0
M  END
>  <inchikey>  (1795) 
HXWNRMYBUBWBSF-UHFFFAOYSA-N

>  <tags>  (1795) 
fragmenstein_placed,CpKRS_FrAncestor_bulkdock_iter2

>  <ref_pdb>  (1795) 
x0421a

>  <energy_score>  (1795) 
-188.63686

>  <distance_score>  (1795) 
0.703488

>  <HIPPO Pose ID>  (1795) 
62197

>  <ref_mols>  (1795) 
x0555a

>  <smiles>  (1795) 
C#C[C@@H](NC(=O)c1cccc2c1OC(C)C2)C(C)(C)C

>  <HIPPO Compound ID>  (1795) 
30557

>  <alias>  (1795) 
HXWNRMYBUBWBSF-SBXXRYSUSA-N-P38

>  <subsites>  (1795) 


>  <placement_batch>  (1795) 
CpKRS_FrAncestor_bulkdock_iter2

>  <name>  (1795) 
HXWNRMYBUBWBSF-SBXXRYSUSA-N-P38

$$$$
PYVPASTYESTDFS-VIFPVBQESA-N-P44
     RDKit          3D

 15 16  0  0  0  0  0  0  0  0999 V2000
  -14.6572  -15.0865   47.3106 C   0  0  0  0  0  0  0  0  0  0  0  0
  -13.6519  -15.4135   46.7400 C   0  0  0  0  0  0  0  0  0  0  0  0
  -12.4181  -15.8077   46.0464 C   0  0  2  0  0  0  0  0  0  0  0  0
  -11.3488  -14.9249   46.4461 N   0  0  0  0  0  0  0  0  0  0  0  0
  -11.1519  -13.4118   46.2012 C   0  0  0  0  0  0  0  0  0  0  0  0
  -11.7845  -12.6594   45.5728 O   0  0  0  0  0  0  0  0  0  0  0  0
  -10.0055  -12.9206   46.9773 C   0  0  0  0  0  0  0  0  0  0  0  0
   -9.3202  -13.4153   48.0749 C   0  0  0  0  0  0  0  0  0  0  0  0
   -8.2846  -12.5171   48.4696 C   0  0  0  0  0  0  0  0  0  0  0  0
   -8.1590  -11.3944   47.7714 N   0  0  0  0  0  0  0  0  0  0  0  0
   -9.3029  -11.4029   46.5695 S   0  0  0  0  0  0  0  0  0  0  0  0
  -12.5653  -15.7346   44.5244 C   0  0  0  0  0  0  0  0  0  0  0  0
  -13.5959  -16.7075   43.8728 C   0  0  0  0  0  0  0  0  0  0  0  0
  -12.4412  -17.6824   43.6059 C   0  0  0  0  0  0  0  0  0  0  0  0
  -11.4821  -16.4854   43.7013 C   0  0  0  0  0  0  0  0  0  0  0  0
  1  2  3  0
  3  2  1  1
  3  4  1  0
  4  5  1  0
  5  6  2  0
  5  7  1  0
  7  8  2  0
  8  9  1  0
  9 10  2  0
 10 11  1  0
  3 12  1  0
 12 13  1  0
 13 14  1  0
 14 15  1  0
 11  7  1  0
 15 12  1  0
M  END
>  <inchikey>  (1796) 
PYVPASTYESTDFS-UHFFFAOYSA-N

>  <tags>  (1796) 
fragmenstein_placed,CpKRS_FrAncestor_bulkdock_iter2

>  <ref_pdb>  (1796) 
x0421a

>  <energy_score>  (1796) 
-20.170498

>  <distance_score>  (1796) 
0.566329

>  <HIPPO Pose ID>  (1796) 
62208

>  <ref_mols>  (1796) 
x0502b

>  <smiles>  (1796) 
C#C[C@H](NC(=O)c1ccns1)C1CCC1

>  <HIPPO Compound ID>  (1796) 
30560

>  <alias>  (1796) 
PYVPASTYESTDFS-VIFPVBQESA-N-P44

>  <subsites>  (1796) 


>  <placement_batch>  (1796) 
CpKRS_FrAncestor_bulkdock_iter2

>  <name>  (1796) 
PYVPASTYESTDFS-VIFPVBQESA-N-P44

$$$$
LUHVDYZQACTQAR-JTQLQIEISA-N-P38
     RDKit          3D

 17 17  0  0  0  0  0  0  0  0999 V2000
    5.8013  -12.5973   21.9249 C   0  0  0  0  0  0  0  0  0  0  0  0
    5.3699  -11.6776   22.5517 C   0  0  0  0  0  0  0  0  0  0  0  0
    5.0230  -10.8254   23.6752 C   0  0  2  0  0  0  0  0  0  0  0  0
    4.1563  -11.6624   24.4563 N   0  0  0  0  0  0  0  0  0  0  0  0
    4.3893  -13.0629   25.0521 C   0  0  0  0  0  0  0  0  0  0  0  0
    5.3467  -13.7261   25.0691 O   0  0  0  0  0  0  0  0  0  0  0  0
    3.1802  -13.5836   25.7212 C   0  0  0  0  0  0  0  0  0  0  0  0
    3.2214  -14.7859   26.5140 C   0  0  0  0  0  0  0  0  0  0  0  0
    2.0070  -15.1162   27.0531 C   0  0  0  0  0  0  0  0  0  0  0  0
    0.8076  -13.9976   26.6075 S   0  0  0  0  0  0  0  0  0  0  0  0
    1.8976  -13.0495   25.6728 C   0  0  0  0  0  0  0  0  0  0  0  0
    1.5396  -11.9200   25.0323 O   0  0  0  0  0  0  0  0  0  0  0  0
    0.1860  -11.8074   24.6055 C   0  0  0  0  0  0  0  0  0  0  0  0
    4.5321   -9.4099   23.2875 C   0  0  0  0  0  0  0  0  0  0  0  0
    3.0018   -9.3277   23.2068 C   0  0  0  0  0  0  0  0  0  0  0  0
    5.1388   -8.9359   21.9441 C   0  0  0  0  0  0  0  0  0  0  0  0
    5.0207   -8.4298   24.3728 C   0  0  0  0  0  0  0  0  0  0  0  0
  1  2  3  0
  3  2  1  6
  3  4  1  0
  4  5  1  0
  5  6  2  0
  5  7  1  0
  7  8  1  0
  8  9  2  0
  9 10  1  0
 10 11  1  0
 11 12  1  0
 12 13  1  0
  3 14  1  0
 14 15  1  0
 14 16  1  0
 14 17  1  0
 11  7  2  0
M  END
>  <inchikey>  (1797) 
LUHVDYZQACTQAR-UHFFFAOYSA-N

>  <tags>  (1797) 
fragmenstein_placed,CpKRS_FrAncestor_bulkdock_iter2

>  <ref_pdb>  (1797) 
x0421a

>  <energy_score>  (1797) 
-7.191094

>  <distance_score>  (1797) 
0.74854

>  <HIPPO Pose ID>  (1797) 
62216

>  <ref_mols>  (1797) 
x0555a

>  <smiles>  (1797) 
C#C[C@H](NC(=O)c1ccsc1OC)C(C)(C)C

>  <HIPPO Compound ID>  (1797) 
30562

>  <alias>  (1797) 
LUHVDYZQACTQAR-JTQLQIEISA-N-P38

>  <subsites>  (1797) 


>  <placement_batch>  (1797) 
CpKRS_FrAncestor_bulkdock_iter2

>  <name>  (1797) 
LUHVDYZQACTQAR-JTQLQIEISA-N-P38

$$$$
PRJKXBNMPZKIGJ-LBPRGKRZSA-N-P38
     RDKit          3D

 20 21  0  0  0  0  0  0  0  0999 V2000
    5.0590  -11.6599   21.3562 C   0  0  0  0  0  0  0  0  0  0  0  0
    5.1268  -11.2098   22.4517 C   0  0  0  0  0  0  0  0  0  0  0  0
    5.1086  -10.6270   23.7663 C   0  0  2  0  0  0  0  0  0  0  0  0
    4.3528  -11.5872   24.5186 N   0  0  0  0  0  0  0  0  0  0  0  0
    4.7027  -13.0263   24.9411 C   0  0  0  0  0  0  0  0  0  0  0  0
    5.6883  -13.6314   24.8118 O   0  0  0  0  0  0  0  0  0  0  0  0
    3.5765  -13.6779   25.6721 C   0  0  0  0  0  0  0  0  0  0  0  0
    3.8562  -14.7159   26.5713 C   0  0  0  0  0  0  0  0  0  0  0  0
    5.1009  -15.1891   26.7430 F   0  0  0  0  0  0  0  0  0  0  0  0
    2.8562  -15.2647   27.3796 C   0  0  0  0  0  0  0  0  0  0  0  0
    1.5408  -14.8240   27.2683 C   0  0  0  0  0  0  0  0  0  0  0  0
    1.2436  -13.8719   26.3129 C   0  0  0  0  0  0  0  0  0  0  0  0
    2.2488  -13.2828   25.5577 C   0  0  0  0  0  0  0  0  0  0  0  0
    1.7640  -12.3079   24.7100 O   0  0  0  0  0  0  0  0  0  0  0  0
    0.3868  -12.1265   25.1192 C   0  0  0  0  0  0  0  0  0  0  0  0
   -0.0706  -13.3949   25.8286 C   0  0  0  0  0  0  0  0  0  0  0  0
    4.5554   -9.1769   23.6724 C   0  0  0  0  0  0  0  0  0  0  0  0
    5.0534   -8.4584   22.3839 C   0  0  0  0  0  0  0  0  0  0  0  0
    5.1052   -8.3695   24.8553 C   0  0  0  0  0  0  0  0  0  0  0  0
    3.0156   -9.1614   23.6983 C   0  0  0  0  0  0  0  0  0  0  0  0
  1  2  3  0
  3  2  1  6
  3  4  1  0
  4  5  1  0
  5  6  2  0
  5  7  1  0
  7  8  2  0
  8  9  1  0
  8 10  1  0
 10 11  2  0
 11 12  1  0
 12 13  2  0
 13 14  1  0
 14 15  1  0
 15 16  1  0
  3 17  1  0
 17 18  1  0
 17 19  1  0
 17 20  1  0
 13  7  1  0
 16 12  1  0
M  END
>  <inchikey>  (1798) 
PRJKXBNMPZKIGJ-UHFFFAOYSA-N

>  <tags>  (1798) 
fragmenstein_placed,CpKRS_FrAncestor_bulkdock_iter2

>  <ref_pdb>  (1798) 
x0421a

>  <energy_score>  (1798) 
-6.6414

>  <distance_score>  (1798) 
0.65121

>  <HIPPO Pose ID>  (1798) 
62218

>  <ref_mols>  (1798) 
x0555a

>  <smiles>  (1798) 
C#C[C@H](NC(=O)c1c(F)ccc2c1OCC2)C(C)(C)C

>  <HIPPO Compound ID>  (1798) 
30563

>  <alias>  (1798) 
PRJKXBNMPZKIGJ-LBPRGKRZSA-N-P38

>  <subsites>  (1798) 


>  <placement_batch>  (1798) 
CpKRS_FrAncestor_bulkdock_iter2

>  <name>  (1798) 
PRJKXBNMPZKIGJ-LBPRGKRZSA-N-P38

$$$$
HHBQCFJGGDOPPK-LBPRGKRZSA-N-P38
     RDKit          3D

 18 18  0  0  0  0  0  0  0  0999 V2000
    5.8080  -12.5344   21.8614 C   0  0  0  0  0  0  0  0  0  0  0  0
    5.4004  -11.5871   22.4619 C   0  0  0  0  0  0  0  0  0  0  0  0
    5.0713  -10.7494   23.5998 C   0  0  2  0  0  0  0  0  0  0  0  0
    4.2491  -11.6217   24.3857 N   0  0  0  0  0  0  0  0  0  0  0  0
    4.5353  -13.0285   24.9507 C   0  0  0  0  0  0  0  0  0  0  0  0
    5.5113  -13.6664   24.9311 O   0  0  0  0  0  0  0  0  0  0  0  0
    3.3432  -13.5241   25.6957 C   0  0  0  0  0  0  0  0  0  0  0  0
    3.5621  -14.5495   26.5345 C   0  0  0  0  0  0  0  0  0  0  0  0
    2.6432  -15.0442   27.4427 N   0  0  0  0  0  0  0  0  0  0  0  0
    3.0237  -16.1464   28.3185 C   0  0  0  0  0  0  0  0  0  0  0  0
    1.3665  -14.5173   27.4261 C   0  0  0  0  0  0  0  0  0  0  0  0
    0.9719  -13.5365   26.6065 C   0  0  0  0  0  0  0  0  0  0  0  0
    1.9863  -12.9297   25.7102 C   0  0  0  0  0  0  0  0  0  0  0  0
    1.6954  -11.9308   25.0535 O   0  0  0  0  0  0  0  0  0  0  0  0
    4.5423   -9.3440   23.2548 C   0  0  0  0  0  0  0  0  0  0  0  0
    5.1289   -8.8312   21.9193 C   0  0  0  0  0  0  0  0  0  0  0  0
    3.0101   -9.2984   23.1920 C   0  0  0  0  0  0  0  0  0  0  0  0
    5.0217   -8.3827   24.3606 C   0  0  0  0  0  0  0  0  0  0  0  0
  1  2  3  0
  3  2  1  6
  3  4  1  0
  4  5  1  0
  5  6  2  0
  5  7  1  0
  7  8  2  0
  8  9  1  0
  9 10  1  0
  9 11  1  0
 11 12  2  0
 12 13  1  0
 13 14  2  0
  3 15  1  0
 15 16  1  0
 15 17  1  0
 15 18  1  0
 13  7  1  0
M  END
>  <inchikey>  (1799) 
HHBQCFJGGDOPPK-UHFFFAOYSA-N

>  <tags>  (1799) 
fragmenstein_placed,CpKRS_FrAncestor_bulkdock_iter2

>  <ref_pdb>  (1799) 
x0421a

>  <energy_score>  (1799) 
-12.545795

>  <distance_score>  (1799) 
0.449957

>  <HIPPO Pose ID>  (1799) 
62220

>  <ref_mols>  (1799) 
x0555a

>  <smiles>  (1799) 
C#C[C@H](NC(=O)c1cn(C)ccc1=O)C(C)(C)C

>  <HIPPO Compound ID>  (1799) 
30564

>  <alias>  (1799) 
HHBQCFJGGDOPPK-LBPRGKRZSA-N-P38

>  <subsites>  (1799) 


>  <placement_batch>  (1799) 
CpKRS_FrAncestor_bulkdock_iter2

>  <name>  (1799) 
HHBQCFJGGDOPPK-LBPRGKRZSA-N-P38

$$$$
ACICUFGCQIVYJM-NSHDSACASA-N-P38
     RDKit          3D

 20 20  0  0  0  0  0  0  0  0999 V2000
    5.8104  -12.5377   21.8638 C   0  0  0  0  0  0  0  0  0  0  0  0
    5.4083  -11.5885   22.4652 C   0  0  0  0  0  0  0  0  0  0  0  0
    5.0850  -10.7465   23.6019 C   0  0  2  0  0  0  0  0  0  0  0  0
    4.2625  -11.6166   24.3909 N   0  0  0  0  0  0  0  0  0  0  0  0
    4.5480  -13.0221   24.9589 C   0  0  0  0  0  0  0  0  0  0  0  0
    5.5236  -13.6609   24.9400 O   0  0  0  0  0  0  0  0  0  0  0  0
    3.3522  -13.5252   25.6939 C   0  0  0  0  0  0  0  0  0  0  0  0
    3.5547  -14.5861   26.4931 C   0  0  0  0  0  0  0  0  0  0  0  0
    2.6213  -15.1179   27.3691 N   0  0  0  0  0  0  0  0  0  0  0  0
    2.9643  -16.3123   28.1401 C   0  0  0  0  0  0  0  0  0  0  0  0
    2.1084  -16.4483   29.1915 F   0  0  0  0  0  0  0  0  0  0  0  0
    4.1981  -16.1743   28.6879 F   0  0  0  0  0  0  0  0  0  0  0  0
    1.3617  -14.5464   27.3897 C   0  0  0  0  0  0  0  0  0  0  0  0
    0.9855  -13.5256   26.6112 C   0  0  0  0  0  0  0  0  0  0  0  0
    2.0007  -12.9179   25.7179 C   0  0  0  0  0  0  0  0  0  0  0  0
    1.7155  -11.9125   25.0699 O   0  0  0  0  0  0  0  0  0  0  0  0
    4.5548   -9.3422   23.2536 C   0  0  0  0  0  0  0  0  0  0  0  0
    3.0227   -9.2984   23.1867 C   0  0  0  0  0  0  0  0  0  0  0  0
    5.0305   -8.3787   24.3590 C   0  0  0  0  0  0  0  0  0  0  0  0
    5.1435   -8.8313   21.9183 C   0  0  0  0  0  0  0  0  0  0  0  0
  1  2  3  0
  3  2  1  6
  3  4  1  0
  4  5  1  0
  5  6  2  0
  5  7  1  0
  7  8  2  0
  8  9  1  0
  9 10  1  0
 10 11  1  0
 10 12  1  0
  9 13  1  0
 13 14  2  0
 14 15  1  0
 15 16  2  0
  3 17  1  0
 17 18  1  0
 17 19  1  0
 17 20  1  0
 15  7  1  0
M  END
>  <inchikey>  (1800) 
ACICUFGCQIVYJM-UHFFFAOYSA-N

>  <tags>  (1800) 
fragmenstein_placed,CpKRS_FrAncestor_bulkdock_iter2

>  <ref_pdb>  (1800) 
x0421a

>  <energy_score>  (1800) 
-5.105452

>  <distance_score>  (1800) 
0.468629

>  <HIPPO Pose ID>  (1800) 
62223

>  <ref_mols>  (1800) 
x0555a

>  <smiles>  (1800) 
C#C[C@H](NC(=O)c1cn(C(F)F)ccc1=O)C(C)(C)C

>  <HIPPO Compound ID>  (1800) 
30566

>  <alias>  (1800) 
ACICUFGCQIVYJM-NSHDSACASA-N-P38

>  <subsites>  (1800) 


>  <placement_batch>  (1800) 
CpKRS_FrAncestor_bulkdock_iter2

>  <name>  (1800) 
ACICUFGCQIVYJM-NSHDSACASA-N-P38

$$$$
BQINTYBSDSYCGJ-SECBINFHSA-N-P46
     RDKit          3D

 15 16  0  0  0  0  0  0  0  0999 V2000
    5.8641  -13.3172   22.1838 C   0  0  0  0  0  0  0  0  0  0  0  0
    5.0790  -12.4891   22.5443 C   0  0  0  0  0  0  0  0  0  0  0  0
    4.1519  -11.5578   23.1602 C   0  0  1  0  0  0  0  0  0  0  0  0
    3.5657  -12.1953   24.3020 N   0  0  0  0  0  0  0  0  0  0  0  0
    4.1392  -13.2655   25.2590 C   0  0  0  0  0  0  0  0  0  0  0  0
    5.2049  -13.7383   25.3134 O   0  0  0  0  0  0  0  0  0  0  0  0
    3.0844  -13.6819   26.1553 C   0  0  0  0  0  0  0  0  0  0  0  0
    2.9854  -14.7112   27.0637 C   0  0  0  0  0  0  0  0  0  0  0  0
    1.7865  -14.6357   27.7336 N   0  0  0  0  0  0  0  0  0  0  0  0
    1.2128  -13.5843   27.1996 C   0  0  0  0  0  0  0  0  0  0  0  0
    1.9089  -12.9701   26.2104 O   0  0  0  0  0  0  0  0  0  0  0  0
    4.9090  -10.3244   23.5971 C   0  0  0  0  0  0  0  0  0  0  0  0
    4.0975   -9.0587   23.9768 C   0  0  0  0  0  0  0  0  0  0  0  0
    5.1863   -8.2456   23.2447 C   0  0  0  0  0  0  0  0  0  0  0  0
    5.4570   -9.4878   22.4022 C   0  0  0  0  0  0  0  0  0  0  0  0
  1  2  3  0
  3  2  1  1
  3  4  1  0
  4  5  1  0
  5  6  2  0
  5  7  1  0
  7  8  2  0
  8  9  1  0
  9 10  2  0
 10 11  1  0
  3 12  1  0
 12 13  1  0
 13 14  1  0
 14 15  1  0
 11  7  1  0
 15 12  1  0
M  END
>  <inchikey>  (1801) 
BQINTYBSDSYCGJ-UHFFFAOYSA-N

>  <tags>  (1801) 
fragmenstein_placed,CpKRS_FrAncestor_bulkdock_iter2

>  <ref_pdb>  (1801) 
x0421a

>  <energy_score>  (1801) 
-2.487835

>  <distance_score>  (1801) 
0.61674

>  <HIPPO Pose ID>  (1801) 
62229

>  <ref_mols>  (1801) 
x0502c

>  <smiles>  (1801) 
C#C[C@@H](NC(=O)c1cnco1)C1CCC1

>  <HIPPO Compound ID>  (1801) 
30567

>  <alias>  (1801) 
BQINTYBSDSYCGJ-SECBINFHSA-N-P46

>  <subsites>  (1801) 


>  <placement_batch>  (1801) 
CpKRS_FrAncestor_bulkdock_iter2

>  <name>  (1801) 
BQINTYBSDSYCGJ-SECBINFHSA-N-P46

$$$$
LKDHVCJXUAXZKH-VIFPVBQESA-N-P44
     RDKit          3D

 15 16  0  0  0  0  0  0  0  0999 V2000
  -14.8119  -15.1749   47.2676 C   0  0  0  0  0  0  0  0  0  0  0  0
  -13.7697  -15.4669   46.7463 C   0  0  0  0  0  0  0  0  0  0  0  0
  -12.4904  -15.8194   46.1139 C   0  0  2  0  0  0  0  0  0  0  0  0
  -11.4692  -14.9122   46.5845 N   0  0  0  0  0  0  0  0  0  0  0  0
  -11.3027  -13.3918   46.3714 C   0  0  0  0  0  0  0  0  0  0  0  0
  -12.0041  -12.6209   45.8476 O   0  0  0  0  0  0  0  0  0  0  0  0
  -10.0905  -12.9204   47.0471 C   0  0  0  0  0  0  0  0  0  0  0  0
   -9.4368  -13.3868   48.1745 C   0  0  0  0  0  0  0  0  0  0  0  0
   -8.3451  -12.6484   48.5991 N   0  0  0  0  0  0  0  0  0  0  0  0
   -8.1678  -11.6393   47.7776 C   0  0  0  0  0  0  0  0  0  0  0  0
   -9.2929  -11.4955   46.4957 S   0  0  0  0  0  0  0  0  0  0  0  0
  -12.5651  -15.7242   44.5870 C   0  0  0  0  0  0  0  0  0  0  0  0
  -11.4511  -16.4709   43.8037 C   0  0  0  0  0  0  0  0  0  0  0  0
  -12.4131  -17.6582   43.6423 C   0  0  0  0  0  0  0  0  0  0  0  0
  -13.5714  -16.6784   43.8704 C   0  0  0  0  0  0  0  0  0  0  0  0
  1  2  3  0
  3  2  1  1
  3  4  1  0
  4  5  1  0
  5  6  2  0
  5  7  1  0
  7  8  2  0
  8  9  1  0
  9 10  2  0
 10 11  1  0
  3 12  1  0
 12 13  1  0
 13 14  1  0
 14 15  1  0
 11  7  1  0
 15 12  1  0
M  END
>  <inchikey>  (1802) 
LKDHVCJXUAXZKH-UHFFFAOYSA-N

>  <tags>  (1802) 
fragmenstein_placed,CpKRS_FrAncestor_bulkdock_iter2

>  <ref_pdb>  (1802) 
x0421a

>  <energy_score>  (1802) 
-19.884213

>  <distance_score>  (1802) 
0.570037

>  <HIPPO Pose ID>  (1802) 
62231

>  <ref_mols>  (1802) 
x0502b

>  <smiles>  (1802) 
C#C[C@H](NC(=O)c1cncs1)C1CCC1

>  <HIPPO Compound ID>  (1802) 
30568

>  <alias>  (1802) 
LKDHVCJXUAXZKH-VIFPVBQESA-N-P44

>  <subsites>  (1802) 


>  <placement_batch>  (1802) 
CpKRS_FrAncestor_bulkdock_iter2

>  <name>  (1802) 
LKDHVCJXUAXZKH-VIFPVBQESA-N-P44

$$$$
WHFGZHPOQGJPOA-JTQLQIEISA-N-P44
     RDKit          3D

 15 16  0  0  0  0  0  0  0  0999 V2000
  -14.5532  -15.1180   47.3964 C   0  0  0  0  0  0  0  0  0  0  0  0
  -13.5593  -15.4360   46.8011 C   0  0  0  0  0  0  0  0  0  0  0  0
  -12.3388  -15.8210   46.0786 C   0  0  2  0  0  0  0  0  0  0  0  0
  -11.2679  -14.9321   46.4644 N   0  0  0  0  0  0  0  0  0  0  0  0
  -11.0694  -13.4279   46.1948 C   0  0  0  0  0  0  0  0  0  0  0  0
  -11.6996  -12.6857   45.5539 O   0  0  0  0  0  0  0  0  0  0  0  0
   -9.9371  -12.8855   46.9674 C   0  0  0  0  0  0  0  0  0  0  0  0
   -9.3317  -13.3699   48.1745 C   0  0  0  0  0  0  0  0  0  0  0  0
   -8.3548  -12.6456   48.7184 N   0  0  0  0  0  0  0  0  0  0  0  0
   -8.1066  -11.3157   47.7648 S   0  0  0  0  0  0  0  0  0  0  0  0
   -9.3186  -11.6908   46.6235 C   0  0  0  0  0  0  0  0  0  0  0  0
  -12.5221  -15.7425   44.5604 C   0  0  0  0  0  0  0  0  0  0  0  0
  -11.4659  -16.4993   43.7083 C   0  0  0  0  0  0  0  0  0  0  0  0
  -12.4375  -17.6877   43.6313 C   0  0  0  0  0  0  0  0  0  0  0  0
  -13.5766  -16.7044   43.9298 C   0  0  0  0  0  0  0  0  0  0  0  0
  1  2  3  0
  3  2  1  1
  3  4  1  0
  4  5  1  0
  5  6  2  0
  5  7  1  0
  7  8  1  0
  8  9  2  0
  9 10  1  0
 10 11  1  0
  3 12  1  0
 12 13  1  0
 13 14  1  0
 14 15  1  0
 11  7  2  0
 15 12  1  0
M  END
>  <inchikey>  (1803) 
WHFGZHPOQGJPOA-UHFFFAOYSA-N

>  <tags>  (1803) 
fragmenstein_placed,CpKRS_FrAncestor_bulkdock_iter2

>  <ref_pdb>  (1803) 
x0421a

>  <energy_score>  (1803) 
-14.60783

>  <distance_score>  (1803) 
0.58291

>  <HIPPO Pose ID>  (1803) 
62237

>  <ref_mols>  (1803) 
x0502b

>  <smiles>  (1803) 
C#C[C@H](NC(=O)c1cnsc1)C1CCC1

>  <HIPPO Compound ID>  (1803) 
30569

>  <alias>  (1803) 
WHFGZHPOQGJPOA-JTQLQIEISA-N-P44

>  <subsites>  (1803) 


>  <placement_batch>  (1803) 
CpKRS_FrAncestor_bulkdock_iter2

>  <name>  (1803) 
WHFGZHPOQGJPOA-JTQLQIEISA-N-P44

$$$$
APLCXHNVOAVTLN-JTQLQIEISA-N-P38
     RDKit          3D

 18 18  0  0  0  0  0  0  0  0999 V2000
    5.0825  -11.6034   21.3568 C   0  0  0  0  0  0  0  0  0  0  0  0
    5.1997  -11.0811   22.4161 C   0  0  0  0  0  0  0  0  0  0  0  0
    5.2009  -10.4690   23.7192 C   0  0  2  0  0  0  0  0  0  0  0  0
    4.4405  -11.4042   24.4955 N   0  0  0  0  0  0  0  0  0  0  0  0
    4.6552  -12.9073   24.7388 C   0  0  0  0  0  0  0  0  0  0  0  0
    5.5230  -13.6063   24.4117 O   0  0  0  0  0  0  0  0  0  0  0  0
    3.4994  -13.4621   25.5025 C   0  0  0  0  0  0  0  0  0  0  0  0
    2.2394  -13.0726   25.2886 C   0  0  0  0  0  0  0  0  0  0  0  0
    1.1634  -13.5021   26.0660 O   0  0  0  0  0  0  0  0  0  0  0  0
    1.4074  -14.3149   27.1488 C   0  0  0  0  0  0  0  0  0  0  0  0
    0.5415  -14.5034   27.9942 O   0  0  0  0  0  0  0  0  0  0  0  0
    2.7551  -14.9234   27.2601 C   0  0  0  0  0  0  0  0  0  0  0  0
    3.0413  -16.0944   28.4884 Cl  0  0  0  0  0  0  0  0  0  0  0  0
    3.7386  -14.5087   26.4615 C   0  0  0  0  0  0  0  0  0  0  0  0
    4.6171   -9.0424   23.6016 C   0  0  0  0  0  0  0  0  0  0  0  0
    5.0761   -8.2446   24.8268 C   0  0  0  0  0  0  0  0  0  0  0  0
    5.1770   -8.3188   22.3473 C   0  0  0  0  0  0  0  0  0  0  0  0
    3.0762   -9.0779   23.5255 C   0  0  0  0  0  0  0  0  0  0  0  0
  1  2  3  0
  3  2  1  6
  3  4  1  0
  4  5  1  0
  5  6  2  0
  5  7  1  0
  7  8  2  0
  8  9  1  0
  9 10  1  0
 10 11  2  0
 10 12  1  0
 12 13  1  0
 12 14  2  0
  3 15  1  0
 15 16  1  0
 15 17  1  0
 15 18  1  0
 14  7  1  0
M  END
>  <inchikey>  (1804) 
APLCXHNVOAVTLN-UHFFFAOYSA-N

>  <tags>  (1804) 
fragmenstein_placed,CpKRS_FrAncestor_bulkdock_iter2

>  <ref_pdb>  (1804) 
x0421a

>  <energy_score>  (1804) 
-3.765738

>  <distance_score>  (1804) 
0.941445

>  <HIPPO Pose ID>  (1804) 
62244

>  <ref_mols>  (1804) 
x0555a

>  <smiles>  (1804) 
C#C[C@H](NC(=O)c1coc(=O)c(Cl)c1)C(C)(C)C

>  <HIPPO Compound ID>  (1804) 
30571

>  <alias>  (1804) 
APLCXHNVOAVTLN-JTQLQIEISA-N-P38

>  <subsites>  (1804) 


>  <placement_batch>  (1804) 
CpKRS_FrAncestor_bulkdock_iter2

>  <name>  (1804) 
APLCXHNVOAVTLN-JTQLQIEISA-N-P38

$$$$
FPBWOZFKTBGLKZ-LLVKDONJSA-N-P38
     RDKit          3D

 17 17  0  0  0  0  0  0  0  0999 V2000
    6.9877   -9.2556   24.9492 C   0  0  0  0  0  0  0  0  0  0  0  0
    6.1070   -9.8998   24.4626 C   0  0  0  0  0  0  0  0  0  0  0  0
    5.1683  -10.5062   23.5392 C   0  0  1  0  0  0  0  0  0  0  0  0
    4.2943  -11.4283   24.2068 N   0  0  0  0  0  0  0  0  0  0  0  0
    4.5300  -12.8716   24.6604 C   0  0  0  0  0  0  0  0  0  0  0  0
    5.4424  -13.5719   24.4989 O   0  0  0  0  0  0  0  0  0  0  0  0
    3.3780  -13.3696   25.4477 C   0  0  0  0  0  0  0  0  0  0  0  0
    3.4940  -14.5207   26.2152 C   0  0  0  0  0  0  0  0  0  0  0  0
    2.0882  -14.8923   27.1031 S   0  0  0  0  0  0  0  0  0  0  0  0
    1.2571  -13.5595   26.4317 C   0  0  0  0  0  0  0  0  0  0  0  0
    2.0474  -12.8365   25.5627 C   0  0  0  0  0  0  0  0  0  0  0  0
    1.6515  -11.7020   24.9244 O   0  0  0  0  0  0  0  0  0  0  0  0
    0.2818  -11.6995   24.5292 C   0  0  0  0  0  0  0  0  0  0  0  0
    4.4941   -9.3864   22.6930 C   0  0  0  0  0  0  0  0  0  0  0  0
    2.9950   -9.2588   22.9862 C   0  0  0  0  0  0  0  0  0  0  0  0
    5.0925   -7.9747   22.8963 C   0  0  0  0  0  0  0  0  0  0  0  0
    4.7816   -9.7450   21.2351 C   0  0  0  0  0  0  0  0  0  0  0  0
  1  2  3  0
  3  2  1  1
  3  4  1  0
  4  5  1  0
  5  6  2  0
  5  7  1  0
  7  8  2  0
  8  9  1  0
  9 10  1  0
 10 11  2  0
 11 12  1  0
 12 13  1  0
  3 14  1  0
 14 15  1  0
 14 16  1  0
 14 17  1  0
 11  7  1  0
M  END
>  <inchikey>  (1805) 
FPBWOZFKTBGLKZ-UHFFFAOYSA-N

>  <tags>  (1805) 
fragmenstein_placed,CpKRS_FrAncestor_bulkdock_iter2

>  <ref_pdb>  (1805) 
x0421a

>  <energy_score>  (1805) 
-16.464034

>  <distance_score>  (1805) 
0.761334

>  <HIPPO Pose ID>  (1805) 
62245

>  <ref_mols>  (1805) 
x0555a

>  <smiles>  (1805) 
C#C[C@@H](NC(=O)c1cscc1OC)C(C)(C)C

>  <HIPPO Compound ID>  (1805) 
30572

>  <alias>  (1805) 
FPBWOZFKTBGLKZ-LLVKDONJSA-N-P38

>  <subsites>  (1805) 


>  <placement_batch>  (1805) 
CpKRS_FrAncestor_bulkdock_iter2

>  <name>  (1805) 
FPBWOZFKTBGLKZ-LLVKDONJSA-N-P38

$$$$
ZZNKEIMDBJSEEI-SNVBAGLBSA-N-P38
     RDKit          3D

 17 17  0  0  0  0  0  0  0  0999 V2000
    7.0086   -9.2611   24.9300 C   0  0  0  0  0  0  0  0  0  0  0  0
    6.1281   -9.9103   24.4496 C   0  0  0  0  0  0  0  0  0  0  0  0
    5.1533  -10.5229   23.5659 C   0  0  1  0  0  0  0  0  0  0  0  0
    4.2932  -11.4087   24.2977 N   0  0  0  0  0  0  0  0  0  0  0  0
    4.4945  -12.8742   24.7202 C   0  0  0  0  0  0  0  0  0  0  0  0
    5.4203  -13.5706   24.6086 O   0  0  0  0  0  0  0  0  0  0  0  0
    3.2962  -13.3538   25.4478 C   0  0  0  0  0  0  0  0  0  0  0  0
    3.4659  -14.7511   26.4498 S   0  0  0  0  0  0  0  0  0  0  0  0
    1.8449  -14.6760   26.9697 C   0  0  0  0  0  0  0  0  0  0  0  0
    1.1650  -13.6329   26.3871 C   0  0  0  0  0  0  0  0  0  0  0  0
    1.9953  -12.8759   25.5025 C   0  0  0  0  0  0  0  0  0  0  0  0
    1.6409  -11.7741   24.7884 O   0  0  0  0  0  0  0  0  0  0  0  0
    0.2441  -11.6575   24.5409 C   0  0  0  0  0  0  0  0  0  0  0  0
    4.4770   -9.4042   22.7164 C   0  0  0  0  0  0  0  0  0  0  0  0
    5.0615   -7.9867   22.9255 C   0  0  0  0  0  0  0  0  0  0  0  0
    2.9753   -9.2871   22.9959 C   0  0  0  0  0  0  0  0  0  0  0  0
    4.7793   -9.7542   21.2580 C   0  0  0  0  0  0  0  0  0  0  0  0
  1  2  3  0
  3  2  1  1
  3  4  1  0
  4  5  1  0
  5  6  2  0
  5  7  1  0
  7  8  1  0
  8  9  1  0
  9 10  2  0
 10 11  1  0
 11 12  1  0
 12 13  1  0
  3 14  1  0
 14 15  1  0
 14 16  1  0
 14 17  1  0
 11  7  2  0
M  END
>  <inchikey>  (1806) 
ZZNKEIMDBJSEEI-UHFFFAOYSA-N

>  <tags>  (1806) 
fragmenstein_placed,CpKRS_FrAncestor_bulkdock_iter2

>  <ref_pdb>  (1806) 
x0421a

>  <energy_score>  (1806) 
-6.212292

>  <distance_score>  (1806) 
0.68289

>  <HIPPO Pose ID>  (1806) 
62247

>  <ref_mols>  (1806) 
x0555a

>  <smiles>  (1806) 
C#C[C@@H](NC(=O)c1sccc1OC)C(C)(C)C

>  <HIPPO Compound ID>  (1806) 
30573

>  <alias>  (1806) 
ZZNKEIMDBJSEEI-SNVBAGLBSA-N-P38

>  <subsites>  (1806) 


>  <placement_batch>  (1806) 
CpKRS_FrAncestor_bulkdock_iter2

>  <name>  (1806) 
ZZNKEIMDBJSEEI-SNVBAGLBSA-N-P38

$$$$
NKYUHQRWEJEVQJ-UHFFFAOYSA-N-P39
     RDKit          3D

 16 17  0  0  0  0  0  0  0  0999 V2000
    1.1658  -17.7544   24.6158 C   0  0  0  0  0  0  0  0  0  0  0  0
    1.4931  -16.2784   24.5429 C   0  0  1  0  0  0  0  0  0  0  0  0
    0.1177  -15.3329   25.2017 Cl  0  0  0  0  0  0  0  0  0  0  0  0
    2.8380  -15.9092   25.2184 C   0  0  0  0  0  0  0  0  0  0  0  0
    3.6863  -16.6899   25.4048 O   0  0  0  0  0  0  0  0  0  0  0  0
    2.8135  -14.3759   25.4550 N   0  0  0  0  0  0  0  0  0  0  0  0
    3.8537  -13.4814   25.8773 C   0  0  0  0  0  0  0  0  0  0  0  0
    4.2458  -12.5954   24.7233 C   0  0  0  0  0  0  0  0  0  0  0  0
    4.4873  -13.1398   23.4597 C   0  0  0  0  0  0  0  0  0  0  0  0
    4.7731  -12.2850   22.4164 C   0  0  0  0  0  0  0  0  0  0  0  0
    4.8431  -10.9460   22.5455 N   0  0  0  0  0  0  0  0  0  0  0  0
    4.6749  -10.4083   23.7772 C   0  0  0  0  0  0  0  0  0  0  0  0
    4.7912   -8.9102   23.9114 C   0  0  0  0  0  0  0  0  0  0  0  0
    6.1177   -8.2834   24.2514 C   0  0  0  0  0  0  0  0  0  0  0  0
    5.5628   -8.1309   22.8669 C   0  0  0  0  0  0  0  0  0  0  0  0
    4.3731  -11.2109   24.8804 C   0  0  0  0  0  0  0  0  0  0  0  0
  2  1  1  1
  2  3  1  0
  2  4  1  0
  4  5  2  0
  4  6  1  0
  6  7  1  0
  7  8  1  0
  8  9  2  0
  9 10  1  0
 10 11  2  0
 11 12  1  0
 12 13  1  0
 13 14  1  0
 14 15  1  0
 12 16  2  0
 16  8  1  0
 15 13  1  0
M  END
>  <inchikey>  (1807) 
NKYUHQRWEJEVQJ-UHFFFAOYSA-N

>  <tags>  (1807) 
fragmenstein_placed,CpKRS_FrAncestor_bulkdock_iter2

>  <ref_pdb>  (1807) 
x0421a

>  <energy_score>  (1807) 
-1.771121

>  <distance_score>  (1807) 
0.865772

>  <HIPPO Pose ID>  (1807) 
62256

>  <ref_mols>  (1807) 
x0602a

>  <smiles>  (1807) 
CC(Cl)C(=O)NCc1ccnc(C2CC2)c1

>  <HIPPO Compound ID>  (1807) 
30576

>  <alias>  (1807) 
NKYUHQRWEJEVQJ-UHFFFAOYSA-N-P39

>  <subsites>  (1807) 


>  <placement_batch>  (1807) 
CpKRS_FrAncestor_bulkdock_iter2

>  <name>  (1807) 
NKYUHQRWEJEVQJ-UHFFFAOYSA-N-P39

$$$$
PTYZJMZKNBOSPL-UHFFFAOYSA-N-P60
     RDKit          3D

 17 19  0  0  0  0  0  0  0  0999 V2000
   -4.7562  -25.2244   27.4083 C   0  0  0  0  0  0  0  0  0  0  0  0
   -3.6936  -24.9295   26.9309 C   0  0  0  0  0  0  0  0  0  0  0  0
   -2.3900  -24.5626   26.3528 C   0  0  0  0  0  0  0  0  0  0  0  0
   -1.9737  -25.3859   25.2262 N   0  0  0  0  0  0  0  0  0  0  0  0
   -1.0981  -24.9927   24.2483 C   0  0  0  0  0  0  0  0  0  0  0  0
   -0.8592  -26.0745   23.4291 C   0  0  0  0  0  0  0  0  0  0  0  0
   -1.6593  -27.1538   23.8947 C   0  0  0  0  0  0  0  0  0  0  0  0
   -1.7994  -28.5193   23.3012 C   0  0  0  0  0  0  0  0  0  0  0  0
   -0.7978  -29.4511   23.8500 N   0  0  0  0  0  0  0  0  0  0  0  0
   -1.0390  -29.7467   25.2921 C   0  0  0  0  0  0  0  0  0  0  0  0
   -1.9195  -30.9376   24.8979 C   0  0  0  0  0  0  0  0  0  0  0  0
   -1.1513  -30.8722   23.5539 C   0  0  1  0  0  0  0  0  0  0  0  0
   -1.9015  -31.2163   22.2901 C   0  0  0  0  0  0  0  0  0  0  0  0
   -1.7457  -32.7308   22.2750 C   0  0  0  0  0  0  0  0  0  0  0  0
   -0.5321  -33.0515   22.9794 O   0  0  0  0  0  0  0  0  0  0  0  0
    0.0285  -31.8299   23.4843 C   0  0  0  0  0  0  0  0  0  0  0  0
   -2.3493  -26.6792   24.9950 C   0  0  0  0  0  0  0  0  0  0  0  0
  1  2  3  0
  2  3  1  0
  3  4  1  0
  4  5  1  0
  5  6  2  0
  6  7  1  0
  7  8  1  0
  8  9  1  0
  9 10  1  0
 10 11  1  0
 12 11  1  1
 12 13  1  0
 13 14  1  0
 14 15  1  0
 15 16  1  0
  7 17  2  0
 17  4  1  0
 12  9  1  0
 16 12  1  0
M  END
>  <inchikey>  (1808) 
PTYZJMZKNBOSPL-UHFFFAOYSA-N

>  <tags>  (1808) 
fragmenstein_placed,CpKRS_FrAncestor_bulkdock_iter2

>  <ref_pdb>  (1808) 
x0421a

>  <energy_score>  (1808) 
-24.779438

>  <distance_score>  (1808) 
0.86898

>  <HIPPO Pose ID>  (1808) 
62261

>  <ref_mols>  (1808) 
x0675b

>  <smiles>  (1808) 
C#CCn1ccc(CN2CCC23CCOC3)c1

>  <HIPPO Compound ID>  (1808) 
30581

>  <alias>  (1808) 
PTYZJMZKNBOSPL-UHFFFAOYSA-N-P60

>  <subsites>  (1808) 


>  <placement_batch>  (1808) 
CpKRS_FrAncestor_bulkdock_iter2

>  <name>  (1808) 
PTYZJMZKNBOSPL-UHFFFAOYSA-N-P60

$$$$
IUGKVGICIUQGDH-UHFFFAOYSA-N-P60
     RDKit          3D

 17 19  0  0  0  0  0  0  0  0999 V2000
   -4.1093  -23.8787   25.5280 C   0  0  0  0  0  0  0  0  0  0  0  0
   -2.9923  -24.6819   26.1923 C   0  0  0  0  0  0  0  0  0  0  0  0
   -3.5387  -25.5472   27.3307 C   0  0  0  0  0  0  0  0  0  0  0  0
   -2.2561  -25.4618   25.2084 N   0  0  0  0  0  0  0  0  0  0  0  0
   -1.0594  -25.1041   24.6539 C   0  0  0  0  0  0  0  0  0  0  0  0
   -0.6214  -26.1454   23.8672 C   0  0  0  0  0  0  0  0  0  0  0  0
   -1.6212  -27.1548   23.9024 C   0  0  0  0  0  0  0  0  0  0  0  0
   -1.6132  -28.4840   23.2192 C   0  0  0  0  0  0  0  0  0  0  0  0
   -0.7827  -29.4487   23.9641 N   0  0  0  0  0  0  0  0  0  0  0  0
   -1.3535  -29.7558   25.3082 C   0  0  0  0  0  0  0  0  0  0  0  0
   -2.1358  -30.9263   24.7021 C   0  0  0  0  0  0  0  0  0  0  0  0
   -1.0816  -30.8562   23.5681 C   0  0  1  0  0  0  0  0  0  0  0  0
   -1.5241  -31.1658   22.1588 C   0  0  0  0  0  0  0  0  0  0  0  0
   -1.3825  -32.6820   22.1451 C   0  0  0  0  0  0  0  0  0  0  0  0
   -0.3753  -33.0367   23.1110 O   0  0  0  0  0  0  0  0  0  0  0  0
    0.0708  -31.8324   23.7519 C   0  0  0  0  0  0  0  0  0  0  0  0
   -2.6466  -26.6631   24.6902 C   0  0  0  0  0  0  0  0  0  0  0  0
  1  2  1  0
  2  3  1  0
  2  4  1  0
  4  5  1  0
  5  6  2  0
  6  7  1  0
  7  8  1  0
  8  9  1  0
  9 10  1  0
 10 11  1  0
 12 11  1  1
 12 13  1  0
 13 14  1  0
 14 15  1  0
 15 16  1  0
  7 17  2  0
 17  4  1  0
 12  9  1  0
 16 12  1  0
M  END
>  <inchikey>  (1809) 
IUGKVGICIUQGDH-UHFFFAOYSA-N

>  <tags>  (1809) 
fragmenstein_placed,CpKRS_FrAncestor_bulkdock_iter2

>  <ref_pdb>  (1809) 
x0421a

>  <energy_score>  (1809) 
-32.321971

>  <distance_score>  (1809) 
0.910484

>  <HIPPO Pose ID>  (1809) 
62263

>  <ref_mols>  (1809) 
x0675b

>  <smiles>  (1809) 
CC(C)n1ccc(CN2CCC23CCOC3)c1

>  <HIPPO Compound ID>  (1809) 
30582

>  <alias>  (1809) 
IUGKVGICIUQGDH-UHFFFAOYSA-N-P60

>  <subsites>  (1809) 


>  <placement_batch>  (1809) 
CpKRS_FrAncestor_bulkdock_iter2

>  <name>  (1809) 
IUGKVGICIUQGDH-UHFFFAOYSA-N-P60

$$$$
RGEPBFSMZCZQLA-UHFFFAOYSA-N-P60
     RDKit          3D

 16 18  0  0  0  0  0  0  0  0999 V2000
   -4.7199  -25.2018   27.4040 C   0  0  0  0  0  0  0  0  0  0  0  0
   -3.6616  -24.9181   26.9108 C   0  0  0  0  0  0  0  0  0  0  0  0
   -2.3634  -24.5671   26.3101 C   0  0  0  0  0  0  0  0  0  0  0  0
   -1.9736  -25.4063   25.1853 N   0  0  0  0  0  0  0  0  0  0  0  0
   -1.1249  -25.0277   24.1777 C   0  0  0  0  0  0  0  0  0  0  0  0
   -0.9207  -26.1179   23.3589 C   0  0  0  0  0  0  0  0  0  0  0  0
   -1.7019  -27.1914   23.8663 C   0  0  0  0  0  0  0  0  0  0  0  0
   -1.8519  -28.5752   23.3191 C   0  0  0  0  0  0  0  0  0  0  0  0
   -0.7151  -29.4404   23.6862 N   0  0  0  0  0  0  0  0  0  0  0  0
   -0.5702  -29.5762   25.1732 C   0  0  0  0  0  0  0  0  0  0  0  0
   -1.4504  -30.8429   25.1487 C   0  0  0  0  0  0  0  0  0  0  0  0
   -1.1190  -30.8413   23.6856 C   0  0  0  0  0  0  0  0  0  0  0  0
   -2.0588  -31.4409   22.6868 C   0  0  0  0  0  0  0  0  0  0  0  0
   -1.2242  -32.6498   22.6703 O   0  0  0  0  0  0  0  0  0  0  0  0
   -0.1092  -31.8500   23.2053 C   0  0  0  0  0  0  0  0  0  0  0  0
   -2.3495  -26.7055   24.9877 C   0  0  0  0  0  0  0  0  0  0  0  0
  1  2  3  0
  2  3  1  0
  3  4  1  0
  4  5  1  0
  5  6  2  0
  6  7  1  0
  7  8  1  0
  8  9  1  0
  9 10  1  0
 10 11  1  0
 11 12  1  0
 12 13  1  0
 13 14  1  0
 14 15  1  0
  7 16  2  0
 16  4  1  0
 12  9  1  0
 15 12  1  0
M  END
>  <inchikey>  (1810) 
RGEPBFSMZCZQLA-UHFFFAOYSA-N

>  <tags>  (1810) 
fragmenstein_placed,CpKRS_FrAncestor_bulkdock_iter2

>  <ref_pdb>  (1810) 
x0421a

>  <energy_score>  (1810) 
-21.927766

>  <distance_score>  (1810) 
0.832087

>  <HIPPO Pose ID>  (1810) 
62265

>  <ref_mols>  (1810) 
x0675b

>  <smiles>  (1810) 
C#CCn1ccc(CN2CCC23COC3)c1

>  <HIPPO Compound ID>  (1810) 
30583

>  <alias>  (1810) 
RGEPBFSMZCZQLA-UHFFFAOYSA-N-P60

>  <subsites>  (1810) 


>  <placement_batch>  (1810) 
CpKRS_FrAncestor_bulkdock_iter2

>  <name>  (1810) 
RGEPBFSMZCZQLA-UHFFFAOYSA-N-P60

$$$$
LMRGGALJBLMBCS-UHFFFAOYSA-N-P60
     RDKit          3D

 16 18  0  0  0  0  0  0  0  0999 V2000
   -3.2178  -25.5909   27.4096 C   0  0  0  0  0  0  0  0  0  0  0  0
   -3.3693  -25.1784   25.9501 C   0  0  0  0  0  0  0  0  0  0  0  0
   -3.4826  -23.6596   25.8071 C   0  0  0  0  0  0  0  0  0  0  0  0
   -2.3088  -25.7599   25.1393 N   0  0  0  0  0  0  0  0  0  0  0  0
   -1.0573  -25.2505   24.9461 C   0  0  0  0  0  0  0  0  0  0  0  0
   -0.3828  -26.0988   24.1010 C   0  0  0  0  0  0  0  0  0  0  0  0
   -1.2426  -27.1957   23.7958 C   0  0  0  0  0  0  0  0  0  0  0  0
   -0.9120  -28.3233   22.8681 C   0  0  0  0  0  0  0  0  0  0  0  0
   -0.3873  -29.5697   23.4434 N   0  0  0  0  0  0  0  0  0  0  0  0
    0.2945  -29.4326   24.7589 C   0  0  0  0  0  0  0  0  0  0  0  0
   -0.9603  -30.0200   25.4617 C   0  0  0  0  0  0  0  0  0  0  0  0
   -1.3557  -30.4301   24.0779 C   0  0  0  0  0  0  0  0  0  0  0  0
   -2.7862  -30.5665   23.6705 C   0  0  0  0  0  0  0  0  0  0  0  0
   -2.6707  -32.0263   23.7855 O   0  0  0  0  0  0  0  0  0  0  0  0
   -1.2101  -31.8957   23.7343 C   0  0  0  0  0  0  0  0  0  0  0  0
   -2.4314  -26.9441   24.4546 C   0  0  0  0  0  0  0  0  0  0  0  0
  1  2  1  0
  2  3  1  0
  2  4  1  0
  4  5  1  0
  5  6  2  0
  6  7  1  0
  7  8  1  0
  8  9  1  0
  9 10  1  0
 10 11  1  0
 11 12  1  0
 12 13  1  0
 13 14  1  0
 14 15  1  0
  7 16  2  0
 16  4  1  0
 12  9  1  0
 15 12  1  0
M  END
>  <inchikey>  (1811) 
LMRGGALJBLMBCS-UHFFFAOYSA-N

>  <tags>  (1811) 
fragmenstein_placed,CpKRS_FrAncestor_bulkdock_iter2

>  <ref_pdb>  (1811) 
x0421a

>  <energy_score>  (1811) 
-31.753927

>  <distance_score>  (1811) 
0.951848

>  <HIPPO Pose ID>  (1811) 
62267

>  <ref_mols>  (1811) 
x0675b

>  <smiles>  (1811) 
CC(C)n1ccc(CN2CCC23COC3)c1

>  <HIPPO Compound ID>  (1811) 
30584

>  <alias>  (1811) 
LMRGGALJBLMBCS-UHFFFAOYSA-N-P60

>  <subsites>  (1811) 


>  <placement_batch>  (1811) 
CpKRS_FrAncestor_bulkdock_iter2

>  <name>  (1811) 
LMRGGALJBLMBCS-UHFFFAOYSA-N-P60

$$$$
OLIMUCNXRTVEAF-UHFFFAOYSA-N-P60
     RDKit          3D

 15 16  0  0  0  0  0  0  0  0999 V2000
   -4.8273  -25.3383   27.3772 C   0  0  0  0  0  0  0  0  0  0  0  0
   -3.7342  -25.0590   26.9641 C   0  0  0  0  0  0  0  0  0  0  0  0
   -2.3928  -24.7099   26.4705 C   0  0  0  0  0  0  0  0  0  0  0  0
   -1.9691  -25.4544   25.2934 N   0  0  0  0  0  0  0  0  0  0  0  0
   -1.1273  -24.9715   24.3268 C   0  0  0  0  0  0  0  0  0  0  0  0
   -0.8546  -25.9971   23.4501 C   0  0  0  0  0  0  0  0  0  0  0  0
   -1.5983  -27.1365   23.8681 C   0  0  0  0  0  0  0  0  0  0  0  0
   -1.6671  -28.4638   23.1832 C   0  0  0  0  0  0  0  0  0  0  0  0
   -0.6163  -29.3751   23.6644 N   0  0  0  0  0  0  0  0  0  0  0  0
   -0.5352  -30.5391   22.7464 C   0  0  0  0  0  0  0  0  0  0  0  0
   -0.2146  -31.8586   23.4631 C   0  0  0  0  0  0  0  0  0  0  0  0
   -1.2252  -32.2083   24.4202 O   0  0  0  0  0  0  0  0  0  0  0  0
   -1.7262  -31.0779   25.1466 C   0  0  0  0  0  0  0  0  0  0  0  0
   -0.8274  -29.8381   25.0502 C   0  0  0  0  0  0  0  0  0  0  0  0
   -2.2879  -26.7540   25.0046 C   0  0  0  0  0  0  0  0  0  0  0  0
  1  2  3  0
  2  3  1  0
  3  4  1  0
  4  5  1  0
  5  6  2  0
  6  7  1  0
  7  8  1  0
  8  9  1  0
  9 10  1  0
 10 11  1  0
 11 12  1  0
 12 13  1  0
 13 14  1  0
  7 15  2  0
 15  4  1  0
 14  9  1  0
M  END
>  <inchikey>  (1812) 
OLIMUCNXRTVEAF-UHFFFAOYSA-N

>  <tags>  (1812) 
fragmenstein_placed,CpKRS_FrAncestor_bulkdock_iter2

>  <ref_pdb>  (1812) 
x0421a

>  <energy_score>  (1812) 
-19.318116

>  <distance_score>  (1812) 
0.537711

>  <HIPPO Pose ID>  (1812) 
62269

>  <ref_mols>  (1812) 
x0675b

>  <smiles>  (1812) 
C#CCn1ccc(CN2CCOCC2)c1

>  <HIPPO Compound ID>  (1812) 
30585

>  <alias>  (1812) 
OLIMUCNXRTVEAF-UHFFFAOYSA-N-P60

>  <subsites>  (1812) 


>  <placement_batch>  (1812) 
CpKRS_FrAncestor_bulkdock_iter2

>  <name>  (1812) 
OLIMUCNXRTVEAF-UHFFFAOYSA-N-P60

$$$$
JFSMCUOPQFEUHM-UHFFFAOYSA-N-P60
     RDKit          3D

 15 16  0  0  0  0  0  0  0  0999 V2000
   -2.7617  -26.3028   27.8209 C   0  0  0  0  0  0  0  0  0  0  0  0
   -2.7517  -25.2536   26.7054 C   0  0  0  0  0  0  0  0  0  0  0  0
   -4.1648  -24.7531   26.4400 C   0  0  0  0  0  0  0  0  0  0  0  0
   -2.1299  -25.7652   25.4939 N   0  0  0  0  0  0  0  0  0  0  0  0
   -1.0561  -25.2142   24.8541 C   0  0  0  0  0  0  0  0  0  0  0  0
   -0.6414  -26.0987   23.8834 C   0  0  0  0  0  0  0  0  0  0  0  0
   -1.5321  -27.2073   23.9042 C   0  0  0  0  0  0  0  0  0  0  0  0
   -1.4691  -28.4450   23.0722 C   0  0  0  0  0  0  0  0  0  0  0  0
   -0.4990  -29.4081   23.6242 N   0  0  0  0  0  0  0  0  0  0  0  0
   -0.3871  -30.5595   22.6942 C   0  0  0  0  0  0  0  0  0  0  0  0
   -0.2124  -31.9084   23.4090 C   0  0  0  0  0  0  0  0  0  0  0  0
   -1.3205  -32.2097   24.2703 O   0  0  0  0  0  0  0  0  0  0  0  0
   -1.7968  -31.0673   24.9945 C   0  0  0  0  0  0  0  0  0  0  0  0
   -0.8225  -29.8838   24.9839 C   0  0  0  0  0  0  0  0  0  0  0  0
   -2.4917  -26.9193   24.8567 C   0  0  0  0  0  0  0  0  0  0  0  0
  1  2  1  0
  2  3  1  0
  2  4  1  0
  4  5  1  0
  5  6  2  0
  6  7  1  0
  7  8  1  0
  8  9  1  0
  9 10  1  0
 10 11  1  0
 11 12  1  0
 12 13  1  0
 13 14  1  0
  7 15  2  0
 15  4  1  0
 14  9  1  0
M  END
>  <inchikey>  (1813) 
JFSMCUOPQFEUHM-UHFFFAOYSA-N

>  <tags>  (1813) 
fragmenstein_placed,CpKRS_FrAncestor_bulkdock_iter2

>  <ref_pdb>  (1813) 
x0421a

>  <energy_score>  (1813) 
-23.04311

>  <distance_score>  (1813) 
0.670478

>  <HIPPO Pose ID>  (1813) 
62271

>  <ref_mols>  (1813) 
x0675b

>  <smiles>  (1813) 
CC(C)n1ccc(CN2CCOCC2)c1

>  <HIPPO Compound ID>  (1813) 
30586

>  <alias>  (1813) 
JFSMCUOPQFEUHM-UHFFFAOYSA-N-P60

>  <subsites>  (1813) 


>  <placement_batch>  (1813) 
CpKRS_FrAncestor_bulkdock_iter2

>  <name>  (1813) 
JFSMCUOPQFEUHM-UHFFFAOYSA-N-P60

$$$$
OZJQFABTLSONRR-UHFFFAOYSA-N-P13
     RDKit          3D

 18 20  0  0  0  0  0  0  0  0999 V2000
   -1.4694  -12.4193   25.7790 C   0  0  0  0  0  0  0  0  0  0  0  0
   -0.6211  -13.2850   26.2443 C   0  0  0  0  0  0  0  0  0  0  0  0
    0.2280  -14.1516   26.7086 C   0  0  0  0  0  0  0  0  0  0  0  0
    1.5801  -14.1357   26.3719 N   0  0  0  0  0  0  0  0  0  0  0  0
    2.4713  -15.0983   26.8135 C   0  0  0  0  0  0  0  0  0  0  0  0
    3.6936  -14.8190   26.2666 C   0  0  0  0  0  0  0  0  0  0  0  0
    3.4963  -13.6394   25.5179 C   0  0  0  0  0  0  0  0  0  0  0  0
    4.5358  -12.9100   24.7618 C   0  0  0  0  0  0  0  0  0  0  0  0
    5.5934  -13.3757   24.6213 O   0  0  0  0  0  0  0  0  0  0  0  0
    3.9667  -11.5676   24.2779 N   0  0  0  0  0  0  0  0  0  0  0  0
    4.6000  -10.4817   23.6060 C   0  0  2  0  0  0  0  0  0  0  0  0
    5.1855  -10.9055   22.2476 C   0  0  0  0  0  0  0  0  0  0  0  0
    5.3928   -9.5726   21.5321 C   0  0  0  0  0  0  0  0  0  0  0  0
    4.8594   -8.5497   22.5401 C   0  0  2  0  0  0  0  0  0  0  0  0
    5.8601   -8.4200   23.6891 C   0  0  0  0  0  0  0  0  0  0  0  0
    5.6705   -9.7431   24.4325 C   0  0  0  0  0  0  0  0  0  0  0  0
    3.7096   -9.3116   23.2069 C   0  0  0  0  0  0  0  0  0  0  0  0
    2.2162  -13.2234   25.5829 N   0  0  0  0  0  0  0  0  0  0  0  0
  1  2  2  0
  2  3  2  0
  3  4  1  0
  4  5  1  0
  5  6  2  0
  6  7  1  0
  7  8  1  0
  8  9  2  0
  8 10  1  0
 11 10  1  1
 11 12  1  0
 12 13  1  0
 14 13  1  6
 14 15  1  0
 15 16  1  0
 14 17  1  0
  7 18  2  0
 18  4  1  0
 16 11  1  0
 17 11  1  0
M  END
>  <inchikey>  (1814) 
OZJQFABTLSONRR-UHFFFAOYSA-N

>  <tags>  (1814) 
fragmenstein_placed,CpKRS_FrAncestor_bulkdock_iter2

>  <ref_pdb>  (1814) 
x0421a

>  <energy_score>  (1814) 
-36.696677

>  <distance_score>  (1814) 
0.530664

>  <HIPPO Pose ID>  (1814) 
62274

>  <ref_mols>  (1814) 
x0421c

>  <smiles>  (1814) 
C=C=Cn1ccc(C(=O)NC23CCC(CC2)C3)n1

>  <HIPPO Compound ID>  (1814) 
30587

>  <alias>  (1814) 
OZJQFABTLSONRR-UHFFFAOYSA-N-P13

>  <subsites>  (1814) 


>  <placement_batch>  (1814) 
CpKRS_FrAncestor_bulkdock_iter2

>  <name>  (1814) 
OZJQFABTLSONRR-UHFFFAOYSA-N-P13

$$$$
UHFQINDNHZEHKQ-UHFFFAOYSA-N-P11
     RDKit          3D

 18 20  0  0  0  0  0  0  0  0999 V2000
   -1.2127  -12.4139   26.7432 C   0  0  0  0  0  0  0  0  0  0  0  0
   -0.5601  -13.4230   26.7318 C   0  0  0  0  0  0  0  0  0  0  0  0
    0.1953  -14.6859   26.7038 C   0  0  0  0  0  0  0  0  0  0  0  0
    1.6416  -14.5561   26.6351 N   0  0  0  0  0  0  0  0  0  0  0  0
    2.5397  -15.4134   27.2031 C   0  0  0  0  0  0  0  0  0  0  0  0
    3.7681  -15.0443   26.7155 C   0  0  0  0  0  0  0  0  0  0  0  0
    3.5154  -13.9404   25.8665 C   0  0  0  0  0  0  0  0  0  0  0  0
    4.4922  -13.1719   25.0764 C   0  0  0  0  0  0  0  0  0  0  0  0
    5.6155  -13.4735   25.0078 O   0  0  0  0  0  0  0  0  0  0  0  0
    3.7473  -11.9657   24.4858 N   0  0  0  0  0  0  0  0  0  0  0  0
    4.1976  -10.9408   23.6207 C   0  0  1  0  0  0  0  0  0  0  0  0
    4.5922  -11.4577   22.2300 C   0  0  0  0  0  0  0  0  0  0  0  0
    5.4246  -10.3058   21.6720 C   0  0  0  0  0  0  0  0  0  0  0  0
    5.4989   -9.3190   22.8346 C   0  0  1  0  0  0  0  0  0  0  0  0
    4.1426   -8.6489   22.9563 C   0  0  0  0  0  0  0  0  0  0  0  0
    3.2207   -9.7649   23.4669 C   0  0  0  0  0  0  0  0  0  0  0  0
    5.4690  -10.2163   24.0613 C   0  0  0  0  0  0  0  0  0  0  0  0
    2.2028  -13.6144   25.8604 N   0  0  0  0  0  0  0  0  0  0  0  0
  1  2  3  0
  2  3  1  0
  3  4  1  0
  4  5  1  0
  5  6  2  0
  6  7  1  0
  7  8  1  0
  8  9  2  0
  8 10  1  0
 11 10  1  1
 11 12  1  0
 12 13  1  0
 14 13  1  6
 14 15  1  0
 15 16  1  0
 14 17  1  0
  7 18  2  0
 18  4  1  0
 16 11  1  0
 17 11  1  0
M  END
>  <inchikey>  (1815) 
UHFQINDNHZEHKQ-UHFFFAOYSA-N

>  <tags>  (1815) 
fragmenstein_placed,CpKRS_FrAncestor_bulkdock_iter2

>  <ref_pdb>  (1815) 
x0421a

>  <energy_score>  (1815) 
-15.674638

>  <distance_score>  (1815) 
0.54035

>  <HIPPO Pose ID>  (1815) 
62276

>  <ref_mols>  (1815) 
x0421a

>  <smiles>  (1815) 
C#CCn1ccc(C(=O)NC23CCC(CC2)C3)n1

>  <HIPPO Compound ID>  (1815) 
30588

>  <alias>  (1815) 
UHFQINDNHZEHKQ-UHFFFAOYSA-N-P11

>  <subsites>  (1815) 


>  <placement_batch>  (1815) 
CpKRS_FrAncestor_bulkdock_iter2

>  <name>  (1815) 
UHFQINDNHZEHKQ-UHFFFAOYSA-N-P11

$$$$
ZGGRCXGELMSBFY-UHFFFAOYSA-N-P13
     RDKit          3D

 18 20  0  0  0  0  0  0  0  0999 V2000
   -0.6291  -12.0576   25.2092 C   0  0  0  0  0  0  0  0  0  0  0  0
   -0.2229  -13.3012   26.0162 C   0  0  0  0  0  0  0  0  0  0  0  0
   -1.0860  -14.4711   25.5665 C   0  0  0  0  0  0  0  0  0  0  0  0
    1.1979  -13.6279   25.9390 N   0  0  0  0  0  0  0  0  0  0  0  0
    1.8563  -14.6418   26.5763 C   0  0  0  0  0  0  0  0  0  0  0  0
    3.1758  -14.5395   26.1969 C   0  0  0  0  0  0  0  0  0  0  0  0
    3.2347  -13.3908   25.3723 C   0  0  0  0  0  0  0  0  0  0  0  0
    4.4140  -12.7441   24.7623 C   0  0  0  0  0  0  0  0  0  0  0  0
    5.4646  -13.2472   24.7436 O   0  0  0  0  0  0  0  0  0  0  0  0
    3.9674  -11.3496   24.2896 N   0  0  0  0  0  0  0  0  0  0  0  0
    4.6887  -10.3294   23.6170 C   0  0  2  0  0  0  0  0  0  0  0  0
    5.2474  -10.7785   22.2614 C   0  0  0  0  0  0  0  0  0  0  0  0
    5.5233   -9.4506   21.5577 C   0  0  0  0  0  0  0  0  0  0  0  0
    5.0434   -8.4030   22.5694 C   0  0  2  0  0  0  0  0  0  0  0  0
    6.0343   -8.3297   23.7316 C   0  0  0  0  0  0  0  0  0  0  0  0
    5.7835   -9.6504   24.4589 C   0  0  0  0  0  0  0  0  0  0  0  0
    3.8581   -9.1131   23.2218 C   0  0  0  0  0  0  0  0  0  0  0  0
    2.0105  -12.8473   25.2186 N   0  0  0  0  0  0  0  0  0  0  0  0
  1  2  1  0
  2  3  1  0
  2  4  1  0
  4  5  1  0
  5  6  2  0
  6  7  1  0
  7  8  1  0
  8  9  2  0
  8 10  1  0
 11 10  1  1
 11 12  1  0
 12 13  1  0
 14 13  1  6
 14 15  1  0
 15 16  1  0
 14 17  1  0
  7 18  2  0
 18  4  1  0
 16 11  1  0
 17 11  1  0
M  END
>  <inchikey>  (1816) 
ZGGRCXGELMSBFY-UHFFFAOYSA-N

>  <tags>  (1816) 
fragmenstein_placed,CpKRS_FrAncestor_bulkdock_iter2

>  <ref_pdb>  (1816) 
x0421a

>  <energy_score>  (1816) 
-21.233274

>  <distance_score>  (1816) 
0.653403

>  <HIPPO Pose ID>  (1816) 
62282

>  <ref_mols>  (1816) 
x0421c

>  <smiles>  (1816) 
CC(C)n1ccc(C(=O)NC23CCC(CC2)C3)n1

>  <HIPPO Compound ID>  (1816) 
30589

>  <alias>  (1816) 
ZGGRCXGELMSBFY-UHFFFAOYSA-N-P13

>  <subsites>  (1816) 


>  <placement_batch>  (1816) 
CpKRS_FrAncestor_bulkdock_iter2

>  <name>  (1816) 
ZGGRCXGELMSBFY-UHFFFAOYSA-N-P13

$$$$
WOFJCXLCNDGVKO-UHFFFAOYSA-N-P12
     RDKit          3D

 18 20  0  0  0  0  0  0  0  0999 V2000
   -1.3991  -14.3752   24.4335 C   0  0  0  0  0  0  0  0  0  0  0  0
   -0.7296  -14.0896   25.3896 C   0  0  0  0  0  0  0  0  0  0  0  0
    0.0963  -13.6965   26.5447 C   0  0  0  0  0  0  0  0  0  0  0  0
    1.5089  -14.0239   26.3648 N   0  0  0  0  0  0  0  0  0  0  0  0
    2.2192  -14.9805   27.0340 C   0  0  0  0  0  0  0  0  0  0  0  0
    3.5075  -14.9063   26.5631 C   0  0  0  0  0  0  0  0  0  0  0  0
    3.5027  -13.8441   25.6298 C   0  0  0  0  0  0  0  0  0  0  0  0
    4.6568  -13.2741   24.9002 C   0  0  0  0  0  0  0  0  0  0  0  0
    5.7171  -13.7536   24.9273 O   0  0  0  0  0  0  0  0  0  0  0  0
    4.1624  -11.9932   24.2189 N   0  0  0  0  0  0  0  0  0  0  0  0
    4.8413  -11.0798   23.3495 C   0  0  2  0  0  0  0  0  0  0  0  0
    5.1003   -9.6945   23.9573 C   0  0  2  0  0  0  0  0  0  0  0  0
    3.6774   -9.1787   24.2213 C   0  0  0  0  0  0  0  0  0  0  0  0
    2.8938   -9.6951   23.0053 C   0  0  0  0  0  0  0  0  0  0  0  0
    3.9570  -10.5114   22.2413 C   0  0  1  0  0  0  0  0  0  0  0  0
    4.9172   -9.5192   21.5685 C   0  0  0  0  0  0  0  0  0  0  0  0
    5.6696   -8.9156   22.7593 C   0  0  0  0  0  0  0  0  0  0  0  0
    2.2613  -13.3257   25.4866 N   0  0  0  0  0  0  0  0  0  0  0  0
  1  2  3  0
  2  3  1  0
  3  4  1  0
  4  5  1  0
  5  6  2  0
  6  7  1  0
  7  8  1  0
  8  9  2  0
  8 10  1  0
 11 10  1  1
 11 12  1  0
 12 13  1  6
 13 14  1  0
 15 14  1  1
 15 16  1  0
 16 17  1  0
  7 18  2  0
 18  4  1  0
 15 11  1  0
 17 12  1  0
M  END
>  <inchikey>  (1817) 
WOFJCXLCNDGVKO-UHFFFAOYSA-N

>  <tags>  (1817) 
fragmenstein_placed,CpKRS_FrAncestor_bulkdock_iter2

>  <ref_pdb>  (1817) 
x0421a

>  <energy_score>  (1817) 
-16.112281

>  <distance_score>  (1817) 
0.448214

>  <HIPPO Pose ID>  (1817) 
62285

>  <ref_mols>  (1817) 
x0421b

>  <smiles>  (1817) 
C#CCn1ccc(C(=O)NC2C3CCC2CC3)n1

>  <HIPPO Compound ID>  (1817) 
30590

>  <alias>  (1817) 
WOFJCXLCNDGVKO-UHFFFAOYSA-N-P12

>  <subsites>  (1817) 


>  <placement_batch>  (1817) 
CpKRS_FrAncestor_bulkdock_iter2

>  <name>  (1817) 
WOFJCXLCNDGVKO-UHFFFAOYSA-N-P12

$$$$
KREJWMLDEDXWQR-UHFFFAOYSA-N-P13
     RDKit          3D

 18 20  0  0  0  0  0  0  0  0999 V2000
   -1.1942  -12.3987   25.6190 C   0  0  0  0  0  0  0  0  0  0  0  0
   -0.4312  -13.2948   26.1675 C   0  0  0  0  0  0  0  0  0  0  0  0
    0.3374  -14.1904   26.7106 C   0  0  0  0  0  0  0  0  0  0  0  0
    1.6973  -14.2954   26.4176 N   0  0  0  0  0  0  0  0  0  0  0  0
    2.5052  -15.2859   26.9513 C   0  0  0  0  0  0  0  0  0  0  0  0
    3.7677  -15.1168   26.4506 C   0  0  0  0  0  0  0  0  0  0  0  0
    3.6824  -13.9734   25.6330 C   0  0  0  0  0  0  0  0  0  0  0  0
    4.8006  -13.3227   24.9162 C   0  0  0  0  0  0  0  0  0  0  0  0
    5.8437  -13.8310   24.8302 O   0  0  0  0  0  0  0  0  0  0  0  0
    4.3162  -11.9570   24.4161 N   0  0  0  0  0  0  0  0  0  0  0  0
    4.9820  -10.9657   23.6226 C   0  0  1  0  0  0  0  0  0  0  0  0
    4.1639  -10.4511   22.4406 C   0  0  2  0  0  0  0  0  0  0  0  0
    5.1094   -9.3847   21.8626 C   0  0  0  0  0  0  0  0  0  0  0  0
    5.7078   -8.7465   23.1241 C   0  0  0  0  0  0  0  0  0  0  0  0
    5.0811   -9.5747   24.2625 C   0  0  1  0  0  0  0  0  0  0  0  0
    3.6096   -9.1638   24.4044 C   0  0  0  0  0  0  0  0  0  0  0  0
    2.9826   -9.7258   23.1242 C   0  0  0  0  0  0  0  0  0  0  0  0
    2.4228  -13.4907   25.5908 N   0  0  0  0  0  0  0  0  0  0  0  0
  1  2  2  0
  2  3  2  0
  3  4  1  0
  4  5  1  0
  5  6  2  0
  6  7  1  0
  7  8  1  0
  8  9  2  0
  8 10  1  0
 11 10  1  1
 11 12  1  0
 12 13  1  1
 13 14  1  0
 15 14  1  6
 15 16  1  0
 16 17  1  0
  7 18  2  0
 18  4  1  0
 15 11  1  0
 17 12  1  0
M  END
>  <inchikey>  (1818) 
KREJWMLDEDXWQR-UHFFFAOYSA-N

>  <tags>  (1818) 
fragmenstein_placed,CpKRS_FrAncestor_bulkdock_iter2

>  <ref_pdb>  (1818) 
x0421a

>  <energy_score>  (1818) 
-24.140816

>  <distance_score>  (1818) 
0.474035

>  <HIPPO Pose ID>  (1818) 
62290

>  <ref_mols>  (1818) 
x0421c

>  <smiles>  (1818) 
C=C=Cn1ccc(C(=O)NC2C3CCC2CC3)n1

>  <HIPPO Compound ID>  (1818) 
30591

>  <alias>  (1818) 
KREJWMLDEDXWQR-UHFFFAOYSA-N-P13

>  <subsites>  (1818) 


>  <placement_batch>  (1818) 
CpKRS_FrAncestor_bulkdock_iter2

>  <name>  (1818) 
KREJWMLDEDXWQR-UHFFFAOYSA-N-P13

$$$$
ILHHZFGTAOUEBI-UHFFFAOYSA-N-P12
     RDKit          3D

 18 20  0  0  0  0  0  0  0  0999 V2000
   -0.3657  -14.7075   24.5368 C   0  0  0  0  0  0  0  0  0  0  0  0
   -0.0036  -14.1517   25.9177 C   0  0  0  0  0  0  0  0  0  0  0  0
   -0.6627  -12.7987   26.1289 C   0  0  0  0  0  0  0  0  0  0  0  0
    1.4439  -14.1388   26.1017 N   0  0  0  0  0  0  0  0  0  0  0  0
    2.1562  -14.9254   26.9615 C   0  0  0  0  0  0  0  0  0  0  0  0
    3.4784  -14.7624   26.6296 C   0  0  0  0  0  0  0  0  0  0  0  0
    3.4842  -13.8090   25.5864 C   0  0  0  0  0  0  0  0  0  0  0  0
    4.6603  -13.2069   24.9210 C   0  0  0  0  0  0  0  0  0  0  0  0
    5.7444  -13.5995   25.0791 O   0  0  0  0  0  0  0  0  0  0  0  0
    4.1477  -11.9929   24.1411 N   0  0  0  0  0  0  0  0  0  0  0  0
    4.8448  -11.0579   23.3130 C   0  0  2  0  0  0  0  0  0  0  0  0
    5.0901   -9.6879   23.9596 C   0  0  1  0  0  0  0  0  0  0  0  0
    5.6781   -8.8791   22.7911 C   0  0  0  0  0  0  0  0  0  0  0  0
    4.9489   -9.4562   21.5730 C   0  0  0  0  0  0  0  0  0  0  0  0
    3.9801  -10.4653   22.2046 C   0  0  2  0  0  0  0  0  0  0  0  0
    2.9005   -9.6720   22.9703 C   0  0  0  0  0  0  0  0  0  0  0  0
    3.6616   -9.1816   24.2115 C   0  0  0  0  0  0  0  0  0  0  0  0
    2.2254  -13.4258   25.2676 N   0  0  0  0  0  0  0  0  0  0  0  0
  1  2  1  0
  2  3  1  0
  2  4  1  0
  4  5  1  0
  5  6  2  0
  6  7  1  0
  7  8  1  0
  8  9  2  0
  8 10  1  0
 11 10  1  1
 11 12  1  0
 12 13  1  6
 13 14  1  0
 15 14  1  6
 15 16  1  0
 16 17  1  0
  7 18  2  0
 18  4  1  0
 15 11  1  0
 17 12  1  0
M  END
>  <inchikey>  (1819) 
ILHHZFGTAOUEBI-UHFFFAOYSA-N

>  <tags>  (1819) 
fragmenstein_placed,CpKRS_FrAncestor_bulkdock_iter2

>  <ref_pdb>  (1819) 
x0421a

>  <energy_score>  (1819) 
-28.004559

>  <distance_score>  (1819) 
0.505775

>  <HIPPO Pose ID>  (1819) 
62293

>  <ref_mols>  (1819) 
x0421b

>  <smiles>  (1819) 
CC(C)n1ccc(C(=O)NC2C3CCC2CC3)n1

>  <HIPPO Compound ID>  (1819) 
30592

>  <alias>  (1819) 
ILHHZFGTAOUEBI-UHFFFAOYSA-N-P12

>  <subsites>  (1819) 


>  <placement_batch>  (1819) 
CpKRS_FrAncestor_bulkdock_iter2

>  <name>  (1819) 
ILHHZFGTAOUEBI-UHFFFAOYSA-N-P12

$$$$
GOZLEWQVAQDQIK-UHFFFAOYSA-N-P12
     RDKit          3D

 18 20  0  0  0  0  0  0  0  0999 V2000
   -1.4049  -14.3463   24.4591 C   0  0  0  0  0  0  0  0  0  0  0  0
   -0.7403  -14.0499   25.4154 C   0  0  0  0  0  0  0  0  0  0  0  0
    0.0828  -13.6498   26.5692 C   0  0  0  0  0  0  0  0  0  0  0  0
    1.4948  -13.9807   26.4016 N   0  0  0  0  0  0  0  0  0  0  0  0
    2.1865  -14.9519   27.0683 C   0  0  0  0  0  0  0  0  0  0  0  0
    3.4745  -14.9001   26.5974 C   0  0  0  0  0  0  0  0  0  0  0  0
    3.4909  -13.8299   25.6722 C   0  0  0  0  0  0  0  0  0  0  0  0
    4.6592  -13.3050   24.9338 C   0  0  0  0  0  0  0  0  0  0  0  0
    5.7030  -13.8176   24.9843 O   0  0  0  0  0  0  0  0  0  0  0  0
    4.2156  -12.0210   24.2223 N   0  0  0  0  0  0  0  0  0  0  0  0
    4.9373  -11.1442   23.3438 C   0  0  2  0  0  0  0  0  0  0  0  0
    5.4244   -9.8451   24.0502 C   0  0  0  0  0  0  0  0  0  0  0  0
    4.7939   -8.7313   23.1987 C   0  0  1  0  0  0  0  0  0  0  0  0
    5.3722   -8.7701   21.8145 C   0  0  0  0  0  0  0  0  0  0  0  0
    4.9177   -9.8880   21.2342 C   0  0  0  0  0  0  0  0  0  0  0  0
    4.0362  -10.5972   22.2267 C   0  0  2  0  0  0  0  0  0  0  0  0
    3.4332   -9.3603   22.8887 C   0  0  0  0  0  0  0  0  0  0  0  0
    2.2651  -13.2718   25.5472 N   0  0  0  0  0  0  0  0  0  0  0  0
  1  2  3  0
  2  3  1  0
  3  4  1  0
  4  5  1  0
  5  6  2  0
  6  7  1  0
  7  8  1  0
  8  9  2  0
  8 10  1  0
 11 10  1  1
 11 12  1  0
 13 12  1  1
 13 14  1  0
 14 15  2  0
 16 15  1  6
 16 17  1  0
  7 18  2  0
 18  4  1  0
 16 11  1  0
 17 13  1  0
M  END
>  <inchikey>  (1820) 
GOZLEWQVAQDQIK-UHFFFAOYSA-N

>  <tags>  (1820) 
fragmenstein_placed,CpKRS_FrAncestor_bulkdock_iter2

>  <ref_pdb>  (1820) 
x0421a

>  <energy_score>  (1820) 
-13.415212

>  <distance_score>  (1820) 
0.764517

>  <HIPPO Pose ID>  (1820) 
62297

>  <ref_mols>  (1820) 
x0421b

>  <smiles>  (1820) 
C#CCn1ccc(C(=O)NC2CC3C=CC2C3)n1

>  <HIPPO Compound ID>  (1820) 
30593

>  <alias>  (1820) 
GOZLEWQVAQDQIK-UHFFFAOYSA-N-P12

>  <subsites>  (1820) 


>  <placement_batch>  (1820) 
CpKRS_FrAncestor_bulkdock_iter2

>  <name>  (1820) 
GOZLEWQVAQDQIK-UHFFFAOYSA-N-P12

$$$$
FLALTYGLXKNQIS-UHFFFAOYSA-N-P12
     RDKit          3D

 18 20  0  0  0  0  0  0  0  0999 V2000
   -1.4189  -12.2791   24.9975 C   0  0  0  0  0  0  0  0  0  0  0  0
   -0.7115  -13.0454   25.7712 C   0  0  0  0  0  0  0  0  0  0  0  0
   -0.0041  -13.7978   26.5602 C   0  0  0  0  0  0  0  0  0  0  0  0
    1.3730  -13.9630   26.4017 N   0  0  0  0  0  0  0  0  0  0  0  0
    2.1282  -14.8236   27.1853 C   0  0  0  0  0  0  0  0  0  0  0  0
    3.4210  -14.7887   26.7358 C   0  0  0  0  0  0  0  0  0  0  0  0
    3.4184  -13.8251   25.7106 C   0  0  0  0  0  0  0  0  0  0  0  0
    4.5935  -13.3118   24.9742 C   0  0  0  0  0  0  0  0  0  0  0  0
    5.6299  -13.8392   25.0270 O   0  0  0  0  0  0  0  0  0  0  0  0
    4.1662  -12.0293   24.2495 N   0  0  0  0  0  0  0  0  0  0  0  0
    4.8984  -11.1724   23.3575 C   0  0  2  0  0  0  0  0  0  0  0  0
    5.4013   -9.8728   24.0551 C   0  0  0  0  0  0  0  0  0  0  0  0
    4.7909   -8.7566   23.1924 C   0  0  1  0  0  0  0  0  0  0  0  0
    5.3778   -8.8151   21.8129 C   0  0  0  0  0  0  0  0  0  0  0  0
    4.9114   -9.9314   21.2389 C   0  0  0  0  0  0  0  0  0  0  0  0
    4.0124  -10.6201   22.2311 C   0  0  2  0  0  0  0  0  0  0  0  0
    3.4236   -9.3693   22.8800 C   0  0  0  0  0  0  0  0  0  0  0  0
    2.1764  -13.3544   25.4777 N   0  0  0  0  0  0  0  0  0  0  0  0
  1  2  2  0
  2  3  2  0
  3  4  1  0
  4  5  1  0
  5  6  2  0
  6  7  1  0
  7  8  1  0
  8  9  2  0
  8 10  1  0
 11 10  1  1
 11 12  1  0
 13 12  1  1
 13 14  1  0
 14 15  2  0
 16 15  1  6
 16 17  1  0
  7 18  2  0
 18  4  1  0
 16 11  1  0
 17 13  1  0
M  END
>  <inchikey>  (1821) 
FLALTYGLXKNQIS-UHFFFAOYSA-N

>  <tags>  (1821) 
fragmenstein_placed,CpKRS_FrAncestor_bulkdock_iter2

>  <ref_pdb>  (1821) 
x0421a

>  <energy_score>  (1821) 
-14.790398

>  <distance_score>  (1821) 
0.769861

>  <HIPPO Pose ID>  (1821) 
62301

>  <ref_mols>  (1821) 
x0421b

>  <smiles>  (1821) 
C=C=Cn1ccc(C(=O)NC2CC3C=CC2C3)n1

>  <HIPPO Compound ID>  (1821) 
30594

>  <alias>  (1821) 
FLALTYGLXKNQIS-UHFFFAOYSA-N-P12

>  <subsites>  (1821) 


>  <placement_batch>  (1821) 
CpKRS_FrAncestor_bulkdock_iter2

>  <name>  (1821) 
FLALTYGLXKNQIS-UHFFFAOYSA-N-P12

$$$$
KKBOPBCZLOONAC-UHFFFAOYSA-N-P12
     RDKit          3D

 18 20  0  0  0  0  0  0  0  0999 V2000
   -0.5994  -14.1188   24.5917 C   0  0  0  0  0  0  0  0  0  0  0  0
   -0.0327  -13.4055   25.8204 C   0  0  0  0  0  0  0  0  0  0  0  0
   -0.9016  -13.6429   27.0407 C   0  0  0  0  0  0  0  0  0  0  0  0
    1.3706  -13.7508   26.0077 N   0  0  0  0  0  0  0  0  0  0  0  0
    1.9380  -14.6838   26.8237 C   0  0  0  0  0  0  0  0  0  0  0  0
    3.2836  -14.6891   26.5338 C   0  0  0  0  0  0  0  0  0  0  0  0
    3.4491  -13.6930   25.5484 C   0  0  0  0  0  0  0  0  0  0  0  0
    4.6817  -13.2010   24.9034 C   0  0  0  0  0  0  0  0  0  0  0  0
    5.7274  -13.6944   25.0357 O   0  0  0  0  0  0  0  0  0  0  0  0
    4.2656  -11.9457   24.1276 N   0  0  0  0  0  0  0  0  0  0  0  0
    5.0270  -11.0843   23.2738 C   0  0  2  0  0  0  0  0  0  0  0  0
    5.5041   -9.7919   23.9967 C   0  0  0  0  0  0  0  0  0  0  0  0
    4.8382   -8.6716   23.1794 C   0  0  1  0  0  0  0  0  0  0  0  0
    5.3985   -8.6653   21.7870 C   0  0  0  0  0  0  0  0  0  0  0  0
    4.9654   -9.7811   21.1879 C   0  0  0  0  0  0  0  0  0  0  0  0
    4.1136  -10.5281   22.1707 C   0  0  2  0  0  0  0  0  0  0  0  0
    3.4882   -9.3190   22.8642 C   0  0  0  0  0  0  0  0  0  0  0  0
    2.2643  -13.1295   25.2250 N   0  0  0  0  0  0  0  0  0  0  0  0
  1  2  1  0
  2  3  1  0
  2  4  1  0
  4  5  1  0
  5  6  2  0
  6  7  1  0
  7  8  1  0
  8  9  2  0
  8 10  1  0
 11 10  1  1
 11 12  1  0
 13 12  1  1
 13 14  1  0
 14 15  2  0
 16 15  1  6
 16 17  1  0
  7 18  2  0
 18  4  1  0
 16 11  1  0
 17 13  1  0
M  END
>  <inchikey>  (1822) 
KKBOPBCZLOONAC-UHFFFAOYSA-N

>  <tags>  (1822) 
fragmenstein_placed,CpKRS_FrAncestor_bulkdock_iter2

>  <ref_pdb>  (1822) 
x0421a

>  <energy_score>  (1822) 
-17.596473

>  <distance_score>  (1822) 
0.773569

>  <HIPPO Pose ID>  (1822) 
62305

>  <ref_mols>  (1822) 
x0421b

>  <smiles>  (1822) 
CC(C)n1ccc(C(=O)NC2CC3C=CC2C3)n1

>  <HIPPO Compound ID>  (1822) 
30595

>  <alias>  (1822) 
KKBOPBCZLOONAC-UHFFFAOYSA-N-P12

>  <subsites>  (1822) 


>  <placement_batch>  (1822) 
CpKRS_FrAncestor_bulkdock_iter2

>  <name>  (1822) 
KKBOPBCZLOONAC-UHFFFAOYSA-N-P12

$$$$
OAOGDQZZYAPPPJ-UHFFFAOYSA-N-P13
     RDKit          3D

 20 22  0  0  0  0  0  0  0  0999 V2000
    0.5059  -15.3141   29.6689 C   0  0  0  0  0  0  0  0  0  0  0  0
    0.5389  -14.8920   28.5456 C   0  0  0  0  0  0  0  0  0  0  0  0
    0.5952  -14.4218   27.1572 C   0  0  0  0  0  0  0  0  0  0  0  0
    1.9338  -14.5022   26.6000 N   0  0  0  0  0  0  0  0  0  0  0  0
    2.9293  -15.3711   26.9399 C   0  0  0  0  0  0  0  0  0  0  0  0
    4.0514  -14.9277   26.2885 C   0  0  0  0  0  0  0  0  0  0  0  0
    3.6126  -13.8385   25.5011 C   0  0  0  0  0  0  0  0  0  0  0  0
    4.4230  -13.0006   24.6093 C   0  0  0  0  0  0  0  0  0  0  0  0
    5.5867  -13.0055   24.6434 O   0  0  0  0  0  0  0  0  0  0  0  0
    3.4573  -12.2416   23.6884 N   0  0  0  0  0  0  0  0  0  0  0  0
    3.7126  -11.2602   22.6814 C   0  0  2  0  0  0  0  0  0  0  0  0
    5.0239  -11.4550   21.9216 C   0  0  0  0  0  0  0  0  0  0  0  0
    5.5453  -10.0548   21.6972 C   0  0  0  0  0  0  0  0  0  0  0  0
    5.1378   -9.3171   22.9581 C   0  0  0  0  0  0  0  0  0  0  0  0
    5.9681   -9.6311   24.2023 C   0  0  0  0  0  0  0  0  0  0  0  0
    6.2441   -8.2939   24.8659 C   0  0  0  0  0  0  0  0  0  0  0  0
    5.3271   -7.3030   24.1949 C   0  0  0  0  0  0  0  0  0  0  0  0
    5.2925   -7.8229   22.7774 C   0  0  0  0  0  0  0  0  0  0  0  0
    3.7053   -9.8099   23.1888 C   0  0  0  0  0  0  0  0  0  0  0  0
    2.2823  -13.6381   25.6318 N   0  0  0  0  0  0  0  0  0  0  0  0
  1  2  3  0
  2  3  1  0
  3  4  1  0
  4  5  1  0
  5  6  2  0
  6  7  1  0
  7  8  1  0
  8  9  2  0
  8 10  1  0
 11 10  1  1
 11 12  1  0
 12 13  1  0
 13 14  1  0
 14 15  1  0
 15 16  1  0
 16 17  1  0
 17 18  1  0
 14 19  1  0
  7 20  2  0
 20  4  1  0
 19 11  1  0
 18 14  1  0
M  END
>  <inchikey>  (1823) 
OAOGDQZZYAPPPJ-UHFFFAOYSA-N

>  <tags>  (1823) 
fragmenstein_placed,CpKRS_FrAncestor_bulkdock_iter2

>  <ref_pdb>  (1823) 
x0421a

>  <energy_score>  (1823) 
-3.594855

>  <distance_score>  (1823) 
0.894882

>  <HIPPO Pose ID>  (1823) 
62310

>  <ref_mols>  (1823) 
x0421c

>  <smiles>  (1823) 
C#CCn1ccc(C(=O)NC2CCC3(CCCC3)C2)n1

>  <HIPPO Compound ID>  (1823) 
30596

>  <alias>  (1823) 
OAOGDQZZYAPPPJ-UHFFFAOYSA-N-P13

>  <subsites>  (1823) 


>  <placement_batch>  (1823) 
CpKRS_FrAncestor_bulkdock_iter2

>  <name>  (1823) 
OAOGDQZZYAPPPJ-UHFFFAOYSA-N-P13

$$$$
YGEZWMYJNYYFES-UHFFFAOYSA-N-P11
     RDKit          3D

 18 20  0  0  0  0  0  0  0  0999 V2000
   -1.3563  -12.1896   26.8586 C   0  0  0  0  0  0  0  0  0  0  0  0
   -0.6739  -13.1364   26.5731 C   0  0  0  0  0  0  0  0  0  0  0  0
    0.0859  -14.3197   26.1510 C   0  0  0  0  0  0  0  0  0  0  0  0
    1.5289  -14.2350   26.3266 N   0  0  0  0  0  0  0  0  0  0  0  0
    2.2840  -15.1092   27.0540 C   0  0  0  0  0  0  0  0  0  0  0  0
    3.5839  -14.8727   26.6866 C   0  0  0  0  0  0  0  0  0  0  0  0
    3.5295  -13.8043   25.7535 C   0  0  0  0  0  0  0  0  0  0  0  0
    4.6889  -13.1878   25.0657 C   0  0  0  0  0  0  0  0  0  0  0  0
    5.7585  -13.6346   25.1789 O   0  0  0  0  0  0  0  0  0  0  0  0
    4.2066  -11.9396   24.3147 N   0  0  0  0  0  0  0  0  0  0  0  0
    4.9432  -10.9290   23.6264 C   0  0  1  0  0  0  0  0  0  0  0  0
    5.0058  -11.2284   22.1275 C   0  0  0  0  0  0  0  0  0  0  0  0
    5.3202   -9.8733   21.5161 C   0  0  0  0  0  0  0  0  0  0  0  0
    4.4831   -8.8947   22.3317 C   0  0  0  0  0  0  0  0  0  0  0  0
    4.3543   -9.5324   23.6931 C   0  0  0  0  0  0  0  0  0  0  0  0
    3.2095   -9.1659   24.6211 C   0  0  0  0  0  0  0  0  0  0  0  0
    4.5906   -8.6558   24.9035 C   0  0  0  0  0  0  0  0  0  0  0  0
    2.2566  -13.3758   25.5770 N   0  0  0  0  0  0  0  0  0  0  0  0
  1  2  3  0
  2  3  1  0
  3  4  1  0
  4  5  1  0
  5  6  2  0
  6  7  1  0
  7  8  1  0
  8  9  2  0
  8 10  1  0
 11 10  1  1
 11 12  1  0
 12 13  1  0
 13 14  1  0
 14 15  1  0
 15 16  1  0
 16 17  1  0
  7 18  2  0
 18  4  1  0
 15 11  1  0
 17 15  1  0
M  END
>  <inchikey>  (1824) 
YGEZWMYJNYYFES-UHFFFAOYSA-N

>  <tags>  (1824) 
fragmenstein_placed,CpKRS_FrAncestor_bulkdock_iter2

>  <ref_pdb>  (1824) 
x0421a

>  <energy_score>  (1824) 
-8.485396

>  <distance_score>  (1824) 
0.608417

>  <HIPPO Pose ID>  (1824) 
62316

>  <ref_mols>  (1824) 
x0421a

>  <smiles>  (1824) 
C#CCn1ccc(C(=O)NC2CCCC23CC3)n1

>  <HIPPO Compound ID>  (1824) 
30598

>  <alias>  (1824) 
YGEZWMYJNYYFES-UHFFFAOYSA-N-P11

>  <subsites>  (1824) 


>  <placement_batch>  (1824) 
CpKRS_FrAncestor_bulkdock_iter2

>  <name>  (1824) 
YGEZWMYJNYYFES-UHFFFAOYSA-N-P11

$$$$
BMTHGGXAGOQLTE-UHFFFAOYSA-N-P12
     RDKit          3D

 18 20  0  0  0  0  0  0  0  0999 V2000
   -1.4038  -12.1334   24.7087 C   0  0  0  0  0  0  0  0  0  0  0  0
   -0.7170  -12.9088   25.4917 C   0  0  0  0  0  0  0  0  0  0  0  0
   -0.0329  -13.6669   26.2957 C   0  0  0  0  0  0  0  0  0  0  0  0
    1.3479  -13.8276   26.1715 N   0  0  0  0  0  0  0  0  0  0  0  0
    2.0812  -14.7040   26.9591 C   0  0  0  0  0  0  0  0  0  0  0  0
    3.3859  -14.6601   26.5469 C   0  0  0  0  0  0  0  0  0  0  0  0
    3.4123  -13.6754   25.5399 C   0  0  0  0  0  0  0  0  0  0  0  0
    4.6159  -13.1358   24.8694 C   0  0  0  0  0  0  0  0  0  0  0  0
    5.6430  -13.6799   24.9404 O   0  0  0  0  0  0  0  0  0  0  0  0
    4.2449  -11.7899   24.2320 N   0  0  0  0  0  0  0  0  0  0  0  0
    5.0339  -10.8754   23.4679 C   0  0  1  0  0  0  0  0  0  0  0  0
    4.9295  -11.1736   21.9764 C   0  0  0  0  0  0  0  0  0  0  0  0
    5.2872   -9.8438   21.3354 C   0  0  0  0  0  0  0  0  0  0  0  0
    4.5902   -8.8118   22.2050 C   0  0  0  0  0  0  0  0  0  0  0  0
    4.6014   -9.4242   23.5786 C   0  0  0  0  0  0  0  0  0  0  0  0
    3.6031   -8.9824   24.6142 C   0  0  0  0  0  0  0  0  0  0  0  0
    5.0339   -8.5597   24.7449 C   0  0  0  0  0  0  0  0  0  0  0  0
    2.1775  -13.2063   25.2754 N   0  0  0  0  0  0  0  0  0  0  0  0
  1  2  2  0
  2  3  2  0
  3  4  1  0
  4  5  1  0
  5  6  2  0
  6  7  1  0
  7  8  1  0
  8  9  2  0
  8 10  1  0
 11 10  1  1
 11 12  1  0
 12 13  1  0
 13 14  1  0
 14 15  1  0
 15 16  1  0
 16 17  1  0
  7 18  2  0
 18  4  1  0
 15 11  1  0
 17 15  1  0
M  END
>  <inchikey>  (1825) 
BMTHGGXAGOQLTE-UHFFFAOYSA-N

>  <tags>  (1825) 
fragmenstein_placed,CpKRS_FrAncestor_bulkdock_iter2

>  <ref_pdb>  (1825) 
x0421a

>  <energy_score>  (1825) 
-32.46523

>  <distance_score>  (1825) 
0.544818

>  <HIPPO Pose ID>  (1825) 
62321

>  <ref_mols>  (1825) 
x0421b

>  <smiles>  (1825) 
C=C=Cn1ccc(C(=O)NC2CCCC23CC3)n1

>  <HIPPO Compound ID>  (1825) 
30599

>  <alias>  (1825) 
BMTHGGXAGOQLTE-UHFFFAOYSA-N-P12

>  <subsites>  (1825) 


>  <placement_batch>  (1825) 
CpKRS_FrAncestor_bulkdock_iter2

>  <name>  (1825) 
BMTHGGXAGOQLTE-UHFFFAOYSA-N-P12

$$$$
FJWZJUVVZJQZCS-UHFFFAOYSA-N-P13
     RDKit          3D

 18 20  0  0  0  0  0  0  0  0999 V2000
   -0.2363  -14.8140   24.2752 C   0  0  0  0  0  0  0  0  0  0  0  0
    0.0249  -14.2882   25.6886 C   0  0  0  0  0  0  0  0  0  0  0  0
   -0.6986  -12.9687   25.9174 C   0  0  0  0  0  0  0  0  0  0  0  0
    1.4563  -14.2171   25.9557 N   0  0  0  0  0  0  0  0  0  0  0  0
    2.1604  -15.0502   26.7741 C   0  0  0  0  0  0  0  0  0  0  0  0
    3.4845  -14.8164   26.5000 C   0  0  0  0  0  0  0  0  0  0  0  0
    3.4930  -13.7708   25.5423 C   0  0  0  0  0  0  0  0  0  0  0  0
    4.6887  -13.1480   24.9316 C   0  0  0  0  0  0  0  0  0  0  0  0
    5.7410  -13.6326   25.0474 O   0  0  0  0  0  0  0  0  0  0  0  0
    4.2642  -11.8456   24.2414 N   0  0  0  0  0  0  0  0  0  0  0  0
    5.0497  -10.8190   23.6314 C   0  0  1  0  0  0  0  0  0  0  0  0
    5.1341  -11.0522   22.1234 C   0  0  0  0  0  0  0  0  0  0  0  0
    5.4499   -9.6749   21.5712 C   0  0  0  0  0  0  0  0  0  0  0  0
    4.6060   -8.7310   22.4166 C   0  0  0  0  0  0  0  0  0  0  0  0
    4.4824   -9.4150   23.7530 C   0  0  0  0  0  0  0  0  0  0  0  0
    3.3536   -9.0728   24.7055 C   0  0  0  0  0  0  0  0  0  0  0  0
    4.7407   -8.5820   24.9913 C   0  0  0  0  0  0  0  0  0  0  0  0
    2.2342  -13.3725   25.2510 N   0  0  0  0  0  0  0  0  0  0  0  0
  1  2  1  0
  2  3  1  0
  2  4  1  0
  4  5  1  0
  5  6  2  0
  6  7  1  0
  7  8  1  0
  8  9  2  0
  8 10  1  0
 11 10  1  1
 11 12  1  0
 12 13  1  0
 13 14  1  0
 14 15  1  0
 15 16  1  0
 16 17  1  0
  7 18  2  0
 18  4  1  0
 15 11  1  0
 17 15  1  0
M  END
>  <inchikey>  (1826) 
FJWZJUVVZJQZCS-UHFFFAOYSA-N

>  <tags>  (1826) 
fragmenstein_placed,CpKRS_FrAncestor_bulkdock_iter2

>  <ref_pdb>  (1826) 
x0421a

>  <energy_score>  (1826) 
-20.824634

>  <distance_score>  (1826) 
0.501008

>  <HIPPO Pose ID>  (1826) 
62326

>  <ref_mols>  (1826) 
x0421c

>  <smiles>  (1826) 
CC(C)n1ccc(C(=O)NC2CCCC23CC3)n1

>  <HIPPO Compound ID>  (1826) 
30600

>  <alias>  (1826) 
FJWZJUVVZJQZCS-UHFFFAOYSA-N-P13

>  <subsites>  (1826) 


>  <placement_batch>  (1826) 
CpKRS_FrAncestor_bulkdock_iter2

>  <name>  (1826) 
FJWZJUVVZJQZCS-UHFFFAOYSA-N-P13

$$$$
GZKLHLWRCMIPPG-UHFFFAOYSA-N-P11
     RDKit          3D

 19 21  0  0  0  0  0  0  0  0999 V2000
   -0.6445  -13.8282   24.5964 C   0  0  0  0  0  0  0  0  0  0  0  0
   -0.1391  -13.9160   26.0383 C   0  0  0  0  0  0  0  0  0  0  0  0
   -0.6460  -12.7292   26.8445 C   0  0  0  0  0  0  0  0  0  0  0  0
    1.3107  -14.0371   26.1238 N   0  0  0  0  0  0  0  0  0  0  0  0
    1.9843  -14.9715   26.8523 C   0  0  0  0  0  0  0  0  0  0  0  0
    3.3100  -14.7879   26.5538 C   0  0  0  0  0  0  0  0  0  0  0  0
    3.3528  -13.6882   25.6551 C   0  0  0  0  0  0  0  0  0  0  0  0
    4.5773  -13.1378   25.0226 C   0  0  0  0  0  0  0  0  0  0  0  0
    5.6016  -13.6766   25.1608 O   0  0  0  0  0  0  0  0  0  0  0  0
    4.2212  -11.8556   24.2498 N   0  0  0  0  0  0  0  0  0  0  0  0
    5.0262  -11.0228   23.4111 C   0  0  1  0  0  0  0  0  0  0  0  0
    4.7563  -11.2203   21.9294 C   0  0  0  0  0  0  0  0  0  0  0  0
    5.1994   -9.8994   21.3251 C   0  0  0  0  0  0  0  0  0  0  0  0
    4.6347   -8.8718   22.2894 C   0  0  0  0  0  0  0  0  0  0  0  0
    4.8342   -9.5219   23.6663 C   0  0  0  0  0  0  0  0  0  0  0  0
    3.8915   -8.9551   24.7563 C   0  0  0  0  0  0  0  0  0  0  0  0
    5.0476   -8.0989   25.2943 C   0  0  0  0  0  0  0  0  0  0  0  0
    6.0298   -8.9255   24.4649 C   0  0  0  0  0  0  0  0  0  0  0  0
    2.1124  -13.1853   25.4465 N   0  0  0  0  0  0  0  0  0  0  0  0
  1  2  1  0
  2  3  1  0
  2  4  1  0
  4  5  1  0
  5  6  2  0
  6  7  1  0
  7  8  1  0
  8  9  2  0
  8 10  1  0
 11 10  1  1
 11 12  1  0
 12 13  1  0
 13 14  1  0
 14 15  1  0
 15 16  1  0
 16 17  1  0
 17 18  1  0
  7 19  2  0
 19  4  1  0
 15 11  1  0
 18 15  1  0
M  END
>  <inchikey>  (1827) 
GZKLHLWRCMIPPG-UHFFFAOYSA-N

>  <tags>  (1827) 
fragmenstein_placed,CpKRS_FrAncestor_bulkdock_iter2

>  <ref_pdb>  (1827) 
x0421a

>  <energy_score>  (1827) 
-21.097569

>  <distance_score>  (1827) 
0.639664

>  <HIPPO Pose ID>  (1827) 
62328

>  <ref_mols>  (1827) 
x0421a

>  <smiles>  (1827) 
CC(C)n1ccc(C(=O)NC2CCCC23CCC3)n1

>  <HIPPO Compound ID>  (1827) 
30601

>  <alias>  (1827) 
GZKLHLWRCMIPPG-UHFFFAOYSA-N-P11

>  <subsites>  (1827) 


>  <placement_batch>  (1827) 
CpKRS_FrAncestor_bulkdock_iter2

>  <name>  (1827) 
GZKLHLWRCMIPPG-UHFFFAOYSA-N-P11

$$$$
ANMPCGOHNDTNBZ-UHFFFAOYSA-N-P13
     RDKit          3D

 19 21  0  0  0  0  0  0  0  0999 V2000
   -1.5056  -12.6086   25.8724 C   0  0  0  0  0  0  0  0  0  0  0  0
   -0.6054  -13.4179   26.3429 C   0  0  0  0  0  0  0  0  0  0  0  0
    0.3027  -14.2214   26.8119 C   0  0  0  0  0  0  0  0  0  0  0  0
    1.6322  -14.1644   26.3974 N   0  0  0  0  0  0  0  0  0  0  0  0
    2.6113  -15.0357   26.8450 C   0  0  0  0  0  0  0  0  0  0  0  0
    3.7939  -14.6807   26.2485 C   0  0  0  0  0  0  0  0  0  0  0  0
    3.4739  -13.5709   25.4408 C   0  0  0  0  0  0  0  0  0  0  0  0
    4.3897  -12.7695   24.5982 C   0  0  0  0  0  0  0  0  0  0  0  0
    5.5216  -13.0248   24.5035 O   0  0  0  0  0  0  0  0  0  0  0  0
    3.5661  -11.6434   23.9567 N   0  0  0  0  0  0  0  0  0  0  0  0
    3.9357  -10.6566   22.9962 C   0  0  2  0  0  0  0  0  0  0  0  0
    4.9778  -11.0281   21.9599 C   0  0  0  0  0  0  0  0  0  0  0  0
    5.3836   -9.6713   21.3727 C   0  0  0  0  0  0  0  0  0  0  0  0
    4.8560   -8.5894   22.3262 C   0  0  0  0  0  0  0  0  0  0  0  0
    4.5325   -9.3844   23.5930 C   0  0  0  0  0  0  0  0  0  0  0  0
    5.8089   -9.4243   24.4719 C   0  0  0  0  0  0  0  0  0  0  0  0
    5.1779   -8.3282   25.3529 C   0  0  0  0  0  0  0  0  0  0  0  0
    3.8058   -8.7356   24.7969 C   0  0  0  0  0  0  0  0  0  0  0  0
    2.1594  -13.2809   25.5098 N   0  0  0  0  0  0  0  0  0  0  0  0
  1  2  2  0
  2  3  2  0
  3  4  1  0
  4  5  1  0
  5  6  2  0
  6  7  1  0
  7  8  1  0
  8  9  2  0
  8 10  1  0
 11 10  1  1
 11 12  1  0
 12 13  1  0
 13 14  1  0
 14 15  1  0
 15 16  1  0
 16 17  1  0
 17 18  1  0
  7 19  2  0
 19  4  1  0
 15 11  1  0
 18 15  1  0
M  END
>  <inchikey>  (1828) 
ANMPCGOHNDTNBZ-UHFFFAOYSA-N

>  <tags>  (1828) 
fragmenstein_placed,CpKRS_FrAncestor_bulkdock_iter2

>  <ref_pdb>  (1828) 
x0421a

>  <energy_score>  (1828) 
-26.426427

>  <distance_score>  (1828) 
0.613043

>  <HIPPO Pose ID>  (1828) 
62334

>  <ref_mols>  (1828) 
x0421c

>  <smiles>  (1828) 
C=C=Cn1ccc(C(=O)NC2CCCC23CCC3)n1

>  <HIPPO Compound ID>  (1828) 
30602

>  <alias>  (1828) 
ANMPCGOHNDTNBZ-UHFFFAOYSA-N-P13

>  <subsites>  (1828) 


>  <placement_batch>  (1828) 
CpKRS_FrAncestor_bulkdock_iter2

>  <name>  (1828) 
ANMPCGOHNDTNBZ-UHFFFAOYSA-N-P13

$$$$
ZBYFLMLWVOFRPB-UHFFFAOYSA-N-P13
     RDKit          3D

 19 21  0  0  0  0  0  0  0  0999 V2000
   -1.5596  -14.7220   24.3914 C   0  0  0  0  0  0  0  0  0  0  0  0
   -0.8450  -14.1625   25.1785 C   0  0  0  0  0  0  0  0  0  0  0  0
    0.0157  -13.4104   26.1031 C   0  0  0  0  0  0  0  0  0  0  0  0
    1.4229  -13.7679   26.0060 N   0  0  0  0  0  0  0  0  0  0  0  0
    2.0279  -14.8265   26.6162 C   0  0  0  0  0  0  0  0  0  0  0  0
    3.3475  -14.7643   26.2482 C   0  0  0  0  0  0  0  0  0  0  0  0
    3.4641  -13.5995   25.4422 C   0  0  0  0  0  0  0  0  0  0  0  0
    4.7085  -13.1008   24.8173 C   0  0  0  0  0  0  0  0  0  0  0  0
    5.6674  -13.7629   24.8328 O   0  0  0  0  0  0  0  0  0  0  0  0
    4.4700  -11.7034   24.2150 N   0  0  0  0  0  0  0  0  0  0  0  0
    5.3830  -10.7899   23.5901 C   0  0  1  0  0  0  0  0  0  0  0  0
    5.3561  -10.9675   22.0740 C   0  0  0  0  0  0  0  0  0  0  0  0
    4.6148   -9.7481   21.5770 C   0  0  0  0  0  0  0  0  0  0  0  0
    5.1646   -8.6446   22.4497 C   0  0  0  0  0  0  0  0  0  0  0  0
    5.1182   -9.2989   23.8361 C   0  0  0  0  0  0  0  0  0  0  0  0
    6.0911   -8.6012   24.8189 C   0  0  0  0  0  0  0  0  0  0  0  0
    4.9178   -7.7812   25.3642 C   0  0  0  0  0  0  0  0  0  0  0  0
    3.9563   -8.8101   24.7442 C   0  0  0  0  0  0  0  0  0  0  0  0
    2.2724  -12.9767   25.3163 N   0  0  0  0  0  0  0  0  0  0  0  0
  1  2  3  0
  2  3  1  0
  3  4  1  0
  4  5  1  0
  5  6  2  0
  6  7  1  0
  7  8  1  0
  8  9  2  0
  8 10  1  0
 11 10  1  1
 11 12  1  0
 12 13  1  0
 13 14  1  0
 14 15  1  0
 15 16  1  0
 16 17  1  0
 17 18  1  0
  7 19  2  0
 19  4  1  0
 15 11  1  0
 18 15  1  0
M  END
>  <inchikey>  (1829) 
ZBYFLMLWVOFRPB-UHFFFAOYSA-N

>  <tags>  (1829) 
fragmenstein_placed,CpKRS_FrAncestor_bulkdock_iter2

>  <ref_pdb>  (1829) 
x0421a

>  <energy_score>  (1829) 
-14.243191

>  <distance_score>  (1829) 
0.466735

>  <HIPPO Pose ID>  (1829) 
62338

>  <ref_mols>  (1829) 
x0421c

>  <smiles>  (1829) 
C#CCn1ccc(C(=O)NC2CCCC23CCC3)n1

>  <HIPPO Compound ID>  (1829) 
30603

>  <alias>  (1829) 
ZBYFLMLWVOFRPB-UHFFFAOYSA-N-P13

>  <subsites>  (1829) 


>  <placement_batch>  (1829) 
CpKRS_FrAncestor_bulkdock_iter2

>  <name>  (1829) 
ZBYFLMLWVOFRPB-UHFFFAOYSA-N-P13

$$$$
SXSPNWSTZRAMTD-UHFFFAOYSA-N-P11
     RDKit          3D

 20 22  0  0  0  0  0  0  0  0999 V2000
   -1.3827  -14.8806   24.7375 C   0  0  0  0  0  0  0  0  0  0  0  0
   -0.6439  -14.4682   25.5905 C   0  0  0  0  0  0  0  0  0  0  0  0
    0.2573  -13.9211   26.6150 C   0  0  0  0  0  0  0  0  0  0  0  0
    1.6578  -14.2390   26.3922 N   0  0  0  0  0  0  0  0  0  0  0  0
    2.3638  -15.2236   27.0171 C   0  0  0  0  0  0  0  0  0  0  0  0
    3.6642  -15.0619   26.6116 C   0  0  0  0  0  0  0  0  0  0  0  0
    3.6517  -13.9552   25.7239 C   0  0  0  0  0  0  0  0  0  0  0  0
    4.8214  -13.3561   25.0431 C   0  0  0  0  0  0  0  0  0  0  0  0
    5.9022  -13.7407   25.2439 O   0  0  0  0  0  0  0  0  0  0  0  0
    4.3269  -12.1741   24.1979 N   0  0  0  0  0  0  0  0  0  0  0  0
    5.0436  -11.2756   23.3488 C   0  0  1  0  0  0  0  0  0  0  0  0
    4.7451  -11.4262   21.8735 C   0  0  0  0  0  0  0  0  0  0  0  0
    5.2067  -10.0983   21.2999 C   0  0  0  0  0  0  0  0  0  0  0  0
    4.6944   -9.0852   22.2972 C   0  0  0  0  0  0  0  0  0  0  0  0
    4.8440   -9.7843   23.6711 C   0  0  0  0  0  0  0  0  0  0  0  0
    6.0497   -9.1964   24.4494 C   0  0  0  0  0  0  0  0  0  0  0  0
    5.4683   -8.2537   25.4967 C   0  0  0  0  0  0  0  0  0  0  0  0
    4.0120   -8.1513   25.1414 C   0  0  0  0  0  0  0  0  0  0  0  0
    3.6292   -9.4760   24.5470 C   0  0  0  0  0  0  0  0  0  0  0  0
    2.4059  -13.4359   25.6091 N   0  0  0  0  0  0  0  0  0  0  0  0
  1  2  3  0
  2  3  1  0
  3  4  1  0
  4  5  1  0
  5  6  2  0
  6  7  1  0
  7  8  1  0
  8  9  2  0
  8 10  1  0
 11 10  1  1
 11 12  1  0
 12 13  1  0
 13 14  1  0
 14 15  1  0
 15 16  1  0
 16 17  1  0
 17 18  1  0
 18 19  1  0
  7 20  2  0
 20  4  1  0
 15 11  1  0
 19 15  1  0
M  END
>  <inchikey>  (1830) 
SXSPNWSTZRAMTD-UHFFFAOYSA-N

>  <tags>  (1830) 
fragmenstein_placed,CpKRS_FrAncestor_bulkdock_iter2

>  <ref_pdb>  (1830) 
x0421a

>  <energy_score>  (1830) 
-14.830775

>  <distance_score>  (1830) 
0.641301

>  <HIPPO Pose ID>  (1830) 
62340

>  <ref_mols>  (1830) 
x0421a

>  <smiles>  (1830) 
C#CCn1ccc(C(=O)NC2CCCC23CCCC3)n1

>  <HIPPO Compound ID>  (1830) 
30604

>  <alias>  (1830) 
SXSPNWSTZRAMTD-UHFFFAOYSA-N-P11

>  <subsites>  (1830) 


>  <placement_batch>  (1830) 
CpKRS_FrAncestor_bulkdock_iter2

>  <name>  (1830) 
SXSPNWSTZRAMTD-UHFFFAOYSA-N-P11

$$$$
HXUJLBMBJGIMNP-UHFFFAOYSA-N-P11
     RDKit          3D

 20 22  0  0  0  0  0  0  0  0999 V2000
   -1.0995  -12.2156   26.0334 C   0  0  0  0  0  0  0  0  0  0  0  0
   -0.3811  -13.2294   26.4103 C   0  0  0  0  0  0  0  0  0  0  0  0
    0.3527  -14.2273   26.8018 C   0  0  0  0  0  0  0  0  0  0  0  0
    1.7131  -14.3287   26.5079 N   0  0  0  0  0  0  0  0  0  0  0  0
    2.5095  -15.3251   27.0438 C   0  0  0  0  0  0  0  0  0  0  0  0
    3.7896  -15.1088   26.6170 C   0  0  0  0  0  0  0  0  0  0  0  0
    3.7085  -13.9855   25.7678 C   0  0  0  0  0  0  0  0  0  0  0  0
    4.8482  -13.3507   25.0668 C   0  0  0  0  0  0  0  0  0  0  0  0
    5.9396  -13.7033   25.2687 O   0  0  0  0  0  0  0  0  0  0  0  0
    4.3195  -12.1929   24.2103 N   0  0  0  0  0  0  0  0  0  0  0  0
    5.0097  -11.2842   23.3481 C   0  0  1  0  0  0  0  0  0  0  0  0
    4.6796  -11.4261   21.8795 C   0  0  0  0  0  0  0  0  0  0  0  0
    5.1662  -10.1089   21.3010 C   0  0  0  0  0  0  0  0  0  0  0  0
    4.6859   -9.0862   22.3044 C   0  0  0  0  0  0  0  0  0  0  0  0
    4.8290   -9.7920   23.6769 C   0  0  0  0  0  0  0  0  0  0  0  0
    6.0424   -9.2189   24.4527 C   0  0  0  0  0  0  0  0  0  0  0  0
    5.4740   -8.2638   25.4956 C   0  0  0  0  0  0  0  0  0  0  0  0
    4.0174   -8.1481   25.1450 C   0  0  0  0  0  0  0  0  0  0  0  0
    3.6197   -9.4705   24.5544 C   0  0  0  0  0  0  0  0  0  0  0  0
    2.4502  -13.4956   25.7143 N   0  0  0  0  0  0  0  0  0  0  0  0
  1  2  2  0
  2  3  2  0
  3  4  1  0
  4  5  1  0
  5  6  2  0
  6  7  1  0
  7  8  1  0
  8  9  2  0
  8 10  1  0
 11 10  1  1
 11 12  1  0
 12 13  1  0
 13 14  1  0
 14 15  1  0
 15 16  1  0
 16 17  1  0
 17 18  1  0
 18 19  1  0
  7 20  2  0
 20  4  1  0
 15 11  1  0
 19 15  1  0
M  END
>  <inchikey>  (1831) 
HXUJLBMBJGIMNP-UHFFFAOYSA-N

>  <tags>  (1831) 
fragmenstein_placed,CpKRS_FrAncestor_bulkdock_iter2

>  <ref_pdb>  (1831) 
x0421a

>  <energy_score>  (1831) 
-38.568723

>  <distance_score>  (1831) 
0.657271

>  <HIPPO Pose ID>  (1831) 
62344

>  <ref_mols>  (1831) 
x0421a

>  <smiles>  (1831) 
C=C=Cn1ccc(C(=O)NC2CCCC23CCCC3)n1

>  <HIPPO Compound ID>  (1831) 
30605

>  <alias>  (1831) 
HXUJLBMBJGIMNP-UHFFFAOYSA-N-P11

>  <subsites>  (1831) 


>  <placement_batch>  (1831) 
CpKRS_FrAncestor_bulkdock_iter2

>  <name>  (1831) 
HXUJLBMBJGIMNP-UHFFFAOYSA-N-P11

$$$$
ZCYLUAREKOZGSE-UHFFFAOYSA-N-P14
     RDKit          3D

 20 22  0  0  0  0  0  0  0  0999 V2000
   -1.2462  -12.6668   25.9324 C   0  0  0  0  0  0  0  0  0  0  0  0
   -0.3781  -13.2976   26.6651 C   0  0  0  0  0  0  0  0  0  0  0  0
    0.5057  -13.9311   27.3829 C   0  0  0  0  0  0  0  0  0  0  0  0
    1.7756  -14.1719   26.8964 N   0  0  0  0  0  0  0  0  0  0  0  0
    2.7402  -14.9671   27.4868 C   0  0  0  0  0  0  0  0  0  0  0  0
    3.8959  -14.8273   26.7514 C   0  0  0  0  0  0  0  0  0  0  0  0
    3.5501  -13.9289   25.7276 C   0  0  0  0  0  0  0  0  0  0  0  0
    4.3782  -13.1502   24.8026 C   0  0  0  0  0  0  0  0  0  0  0  0
    5.5424  -13.1700   24.7824 O   0  0  0  0  0  0  0  0  0  0  0  0
    3.3828  -12.2911   24.0090 N   0  0  0  0  0  0  0  0  0  0  0  0
    3.6063  -11.2151   23.0982 C   0  0  2  0  0  0  0  0  0  0  0  0
    4.9315  -11.2656   22.3583 C   0  0  0  0  0  0  0  0  0  0  0  0
    5.0853  -10.0873   21.4041 C   0  0  0  0  0  0  0  0  0  0  0  0
    5.7771   -8.8811   22.0232 C   0  0  0  0  0  0  0  0  0  0  0  0
    5.2424   -8.4706   23.3659 C   0  0  0  0  0  0  0  0  0  0  0  0
    3.7727   -8.6477   23.5169 C   0  0  0  0  0  0  0  0  0  0  0  0
    3.3893  -10.0092   24.0143 C   0  0  0  0  0  0  0  0  0  0  0  0
    6.0863   -8.6844   24.6051 C   0  0  0  0  0  0  0  0  0  0  0  0
    5.9140   -7.3046   24.0708 C   0  0  0  0  0  0  0  0  0  0  0  0
    2.2371  -13.6395   25.7626 N   0  0  0  0  0  0  0  0  0  0  0  0
  1  2  2  0
  2  3  2  0
  3  4  1  0
  4  5  1  0
  5  6  2  0
  6  7  1  0
  7  8  1  0
  8  9  2  0
  8 10  1  0
 11 10  1  1
 11 12  1  0
 12 13  1  0
 13 14  1  0
 14 15  1  0
 15 16  1  0
 16 17  1  0
 15 18  1  0
 18 19  1  0
  7 20  2  0
 20  4  1  0
 17 11  1  0
 19 15  1  0
M  END
>  <inchikey>  (1832) 
ZCYLUAREKOZGSE-UHFFFAOYSA-N

>  <tags>  (1832) 
fragmenstein_placed,CpKRS_FrAncestor_bulkdock_iter2

>  <ref_pdb>  (1832) 
x0421a

>  <energy_score>  (1832) 
-18.246043

>  <distance_score>  (1832) 
0.97319

>  <HIPPO Pose ID>  (1832) 
62351

>  <ref_mols>  (1832) 
x0421d

>  <smiles>  (1832) 
C=C=Cn1ccc(C(=O)NC2CCCC3(CC2)CC3)n1

>  <HIPPO Compound ID>  (1832) 
30606

>  <alias>  (1832) 
ZCYLUAREKOZGSE-UHFFFAOYSA-N-P14

>  <subsites>  (1832) 


>  <placement_batch>  (1832) 
CpKRS_FrAncestor_bulkdock_iter2

>  <name>  (1832) 
ZCYLUAREKOZGSE-UHFFFAOYSA-N-P14

$$$$
SQSNGLLWISFWAE-UHFFFAOYSA-N-P13
     RDKit          3D

 19 21  0  0  0  0  0  0  0  0999 V2000
   -1.4602  -14.4312   24.8900 C   0  0  0  0  0  0  0  0  0  0  0  0
   -0.6450  -14.3218   25.7656 C   0  0  0  0  0  0  0  0  0  0  0  0
    0.3445  -14.1337   26.8354 C   0  0  0  0  0  0  0  0  0  0  0  0
    1.7093  -14.4325   26.4323 N   0  0  0  0  0  0  0  0  0  0  0  0
    2.4677  -15.4769   26.8714 C   0  0  0  0  0  0  0  0  0  0  0  0
    3.7066  -15.3081   26.3085 C   0  0  0  0  0  0  0  0  0  0  0  0
    3.6176  -14.1110   25.5580 C   0  0  0  0  0  0  0  0  0  0  0  0
    4.7123  -13.4563   24.8176 C   0  0  0  0  0  0  0  0  0  0  0  0
    5.7694  -13.9385   24.7514 O   0  0  0  0  0  0  0  0  0  0  0  0
    4.1994  -12.1094   24.2935 N   0  0  0  0  0  0  0  0  0  0  0  0
    4.8968  -11.0306   23.6617 C   0  0  1  0  0  0  0  0  0  0  0  0
    4.8489  -11.1297   22.1348 C   0  0  0  0  0  0  0  0  0  0  0  0
    4.8366   -9.7534   21.4650 C   0  0  0  0  0  0  0  0  0  0  0  0
    5.7376   -8.7437   22.1544 C   0  0  0  0  0  0  0  0  0  0  0  0
    5.3909   -8.6194   23.6210 C   0  0  0  0  0  0  0  0  0  0  0  0
    5.4531   -7.2819   24.3234 C   0  0  0  0  0  0  0  0  0  0  0  0
    6.5395   -8.2810   24.5355 C   0  0  0  0  0  0  0  0  0  0  0  0
    4.4234   -9.6601   24.1424 C   0  0  0  0  0  0  0  0  0  0  0  0
    2.3778  -13.5767   25.6333 N   0  0  0  0  0  0  0  0  0  0  0  0
  1  2  3  0
  2  3  1  0
  3  4  1  0
  4  5  1  0
  5  6  2  0
  6  7  1  0
  7  8  1  0
  8  9  2  0
  8 10  1  0
 11 10  1  1
 11 12  1  0
 12 13  1  0
 13 14  1  0
 14 15  1  0
 15 16  1  0
 16 17  1  0
 15 18  1  0
  7 19  2  0
 19  4  1  0
 18 11  1  0
 17 15  1  0
M  END
>  <inchikey>  (1833) 
SQSNGLLWISFWAE-UHFFFAOYSA-N

>  <tags>  (1833) 
fragmenstein_placed,CpKRS_FrAncestor_bulkdock_iter2

>  <ref_pdb>  (1833) 
x0421a

>  <energy_score>  (1833) 
-20.930958

>  <distance_score>  (1833) 
0.520066

>  <HIPPO Pose ID>  (1833) 
62358

>  <ref_mols>  (1833) 
x0421c

>  <smiles>  (1833) 
C#CCn1ccc(C(=O)NC2CCCC3(CC3)C2)n1

>  <HIPPO Compound ID>  (1833) 
30608

>  <alias>  (1833) 
SQSNGLLWISFWAE-UHFFFAOYSA-N-P13

>  <subsites>  (1833) 


>  <placement_batch>  (1833) 
CpKRS_FrAncestor_bulkdock_iter2

>  <name>  (1833) 
SQSNGLLWISFWAE-UHFFFAOYSA-N-P13

$$$$
RUQSHBIHARDKHF-UHFFFAOYSA-N-P13
     RDKit          3D

 19 21  0  0  0  0  0  0  0  0999 V2000
   -1.5019  -12.6843   25.9004 C   0  0  0  0  0  0  0  0  0  0  0  0
   -0.6436  -13.5180   26.4055 C   0  0  0  0  0  0  0  0  0  0  0  0
    0.2214  -14.3479   26.9097 C   0  0  0  0  0  0  0  0  0  0  0  0
    1.5463  -14.3779   26.4901 N   0  0  0  0  0  0  0  0  0  0  0  0
    2.4919  -15.2702   26.9669 C   0  0  0  0  0  0  0  0  0  0  0  0
    3.6889  -14.9754   26.3654 C   0  0  0  0  0  0  0  0  0  0  0  0
    3.4064  -13.8774   25.5327 C   0  0  0  0  0  0  0  0  0  0  0  0
    4.3430  -13.0775   24.7270 C   0  0  0  0  0  0  0  0  0  0  0  0
    5.4667  -13.3591   24.6095 O   0  0  0  0  0  0  0  0  0  0  0  0
    3.5559  -11.8748   24.1854 N   0  0  0  0  0  0  0  0  0  0  0  0
    4.0004  -10.7200   23.4678 C   0  0  2  0  0  0  0  0  0  0  0  0
    4.5356  -11.0774   22.0914 C   0  0  0  0  0  0  0  0  0  0  0  0
    4.8723   -9.7866   21.3584 C   0  0  0  0  0  0  0  0  0  0  0  0
    5.9619   -9.0110   22.0686 C   0  0  0  0  0  0  0  0  0  0  0  0
    5.6266   -8.7883   23.5181 C   0  0  0  0  0  0  0  0  0  0  0  0
    6.5842   -7.9796   24.3489 C   0  0  0  0  0  0  0  0  0  0  0  0
    5.2664   -7.3986   23.9798 C   0  0  0  0  0  0  0  0  0  0  0  0
    5.0731   -9.9817   24.2515 C   0  0  0  0  0  0  0  0  0  0  0  0
    2.1001  -13.5553   25.5693 N   0  0  0  0  0  0  0  0  0  0  0  0
  1  2  2  0
  2  3  2  0
  3  4  1  0
  4  5  1  0
  5  6  2  0
  6  7  1  0
  7  8  1  0
  8  9  2  0
  8 10  1  0
 11 10  1  1
 11 12  1  0
 12 13  1  0
 13 14  1  0
 14 15  1  0
 15 16  1  0
 16 17  1  0
 15 18  1  0
  7 19  2  0
 19  4  1  0
 18 11  1  0
 17 15  1  0
M  END
>  <inchikey>  (1834) 
RUQSHBIHARDKHF-UHFFFAOYSA-N

>  <tags>  (1834) 
fragmenstein_placed,CpKRS_FrAncestor_bulkdock_iter2

>  <ref_pdb>  (1834) 
x0421a

>  <energy_score>  (1834) 
-30.52672

>  <distance_score>  (1834) 
0.554932

>  <HIPPO Pose ID>  (1834) 
62362

>  <ref_mols>  (1834) 
x0421c

>  <smiles>  (1834) 
C=C=Cn1ccc(C(=O)NC2CCCC3(CC3)C2)n1

>  <HIPPO Compound ID>  (1834) 
30609

>  <alias>  (1834) 
RUQSHBIHARDKHF-UHFFFAOYSA-N-P13

>  <subsites>  (1834) 


>  <placement_batch>  (1834) 
CpKRS_FrAncestor_bulkdock_iter2

>  <name>  (1834) 
RUQSHBIHARDKHF-UHFFFAOYSA-N-P13

$$$$
MVZQLZVWMWDWIC-UHFFFAOYSA-N-P11
     RDKit          3D

 19 21  0  0  0  0  0  0  0  0999 V2000
   -1.1267  -12.5695   26.8190 C   0  0  0  0  0  0  0  0  0  0  0  0
   -0.5952  -13.5997   25.8304 C   0  0  0  0  0  0  0  0  0  0  0  0
   -1.4760  -14.8293   25.7363 C   0  0  0  0  0  0  0  0  0  0  0  0
    0.8133  -13.8828   26.0464 N   0  0  0  0  0  0  0  0  0  0  0  0
    1.4393  -14.8550   26.7645 C   0  0  0  0  0  0  0  0  0  0  0  0
    2.7866  -14.7265   26.4780 C   0  0  0  0  0  0  0  0  0  0  0  0
    2.8739  -13.6230   25.6002 C   0  0  0  0  0  0  0  0  0  0  0  0
    4.0232  -12.9911   24.9216 C   0  0  0  0  0  0  0  0  0  0  0  0
    5.1209  -13.3821   24.9584 O   0  0  0  0  0  0  0  0  0  0  0  0
    3.4347  -11.7284   24.2653 N   0  0  0  0  0  0  0  0  0  0  0  0
    4.0474  -10.7428   23.4467 C   0  0  2  0  0  0  0  0  0  0  0  0
    4.4906  -11.2495   22.0853 C   0  0  0  0  0  0  0  0  0  0  0  0
    4.8789  -10.0337   21.2482 C   0  0  0  0  0  0  0  0  0  0  0  0
    5.9907   -9.2189   21.8826 C   0  0  0  0  0  0  0  0  0  0  0  0
    5.7033   -8.9097   23.3240 C   0  0  0  0  0  0  0  0  0  0  0  0
    6.5293   -7.9124   24.0896 C   0  0  0  0  0  0  0  0  0  0  0  0
    5.1708   -7.5414   23.6247 C   0  0  0  0  0  0  0  0  0  0  0  0
    5.2087  -10.0675   24.1476 C   0  0  0  0  0  0  0  0  0  0  0  0
    1.6546  -13.0743   25.4119 N   0  0  0  0  0  0  0  0  0  0  0  0
  1  2  1  0
  2  3  1  0
  2  4  1  0
  4  5  1  0
  5  6  2  0
  6  7  1  0
  7  8  1  0
  8  9  2  0
  8 10  1  0
 11 10  1  1
 11 12  1  0
 12 13  1  0
 13 14  1  0
 14 15  1  0
 15 16  1  0
 16 17  1  0
 15 18  1  0
  7 19  2  0
 19  4  1  0
 18 11  1  0
 17 15  1  0
M  END
>  <inchikey>  (1835) 
MVZQLZVWMWDWIC-UHFFFAOYSA-N

>  <tags>  (1835) 
fragmenstein_placed,CpKRS_FrAncestor_bulkdock_iter2

>  <ref_pdb>  (1835) 
x0421a

>  <energy_score>  (1835) 
-25.291765

>  <distance_score>  (1835) 
0.822498

>  <HIPPO Pose ID>  (1835) 
62364

>  <ref_mols>  (1835) 
x0421a

>  <smiles>  (1835) 
CC(C)n1ccc(C(=O)NC2CCCC3(CC3)C2)n1

>  <HIPPO Compound ID>  (1835) 
30610

>  <alias>  (1835) 
MVZQLZVWMWDWIC-UHFFFAOYSA-N-P11

>  <subsites>  (1835) 


>  <placement_batch>  (1835) 
CpKRS_FrAncestor_bulkdock_iter2

>  <name>  (1835) 
MVZQLZVWMWDWIC-UHFFFAOYSA-N-P11

$$$$
XRFRFFOYEKUNML-UHFFFAOYSA-N-P12
     RDKit          3D

 20 22  0  0  0  0  0  0  0  0999 V2000
   -1.9711  -14.2324   25.0094 C   0  0  0  0  0  0  0  0  0  0  0  0
   -1.1356  -14.0803   25.8596 C   0  0  0  0  0  0  0  0  0  0  0  0
   -0.1154  -13.8441   26.8956 C   0  0  0  0  0  0  0  0  0  0  0  0
    1.2394  -14.1707   26.4629 N   0  0  0  0  0  0  0  0  0  0  0  0
    2.0870  -15.0969   27.0018 C   0  0  0  0  0  0  0  0  0  0  0  0
    3.2824  -14.9644   26.3353 C   0  0  0  0  0  0  0  0  0  0  0  0
    3.0819  -13.8934   25.4379 C   0  0  0  0  0  0  0  0  0  0  0  0
    4.0756  -13.1890   24.6117 C   0  0  0  0  0  0  0  0  0  0  0  0
    5.1735  -13.5546   24.4783 O   0  0  0  0  0  0  0  0  0  0  0  0
    3.3832  -11.9123   24.1114 N   0  0  0  0  0  0  0  0  0  0  0  0
    3.9125  -10.7784   23.4279 C   0  0  2  0  0  0  0  0  0  0  0  0
    4.3302  -11.0544   22.0009 C   0  0  0  0  0  0  0  0  0  0  0  0
    4.7251   -9.7243   21.3639 C   0  0  0  0  0  0  0  0  0  0  0  0
    5.8991   -9.0799   22.0850 C   0  0  0  0  0  0  0  0  0  0  0  0
    5.6423   -8.9564   23.5828 C   0  0  0  0  0  0  0  0  0  0  0  0
    6.7909   -8.3784   24.4489 C   0  0  0  0  0  0  0  0  0  0  0  0
    5.7542   -7.5491   25.2203 C   0  0  0  0  0  0  0  0  0  0  0  0
    4.8561   -7.7093   23.9994 C   0  0  0  0  0  0  0  0  0  0  0  0
    5.0966  -10.2323   24.2000 C   0  0  0  0  0  0  0  0  0  0  0  0
    1.8112  -13.4404   25.4913 N   0  0  0  0  0  0  0  0  0  0  0  0
  1  2  3  0
  2  3  1  0
  3  4  1  0
  4  5  1  0
  5  6  2  0
  6  7  1  0
  7  8  1  0
  8  9  2  0
  8 10  1  0
 11 10  1  1
 11 12  1  0
 12 13  1  0
 13 14  1  0
 14 15  1  0
 15 16  1  0
 16 17  1  0
 17 18  1  0
 15 19  1  0
  7 20  2  0
 20  4  1  0
 19 11  1  0
 18 15  1  0
M  END
>  <inchikey>  (1836) 
XRFRFFOYEKUNML-UHFFFAOYSA-N

>  <tags>  (1836) 
fragmenstein_placed,CpKRS_FrAncestor_bulkdock_iter2

>  <ref_pdb>  (1836) 
x0421a

>  <energy_score>  (1836) 
-13.047543

>  <distance_score>  (1836) 
0.661621

>  <HIPPO Pose ID>  (1836) 
62369

>  <ref_mols>  (1836) 
x0421b

>  <smiles>  (1836) 
C#CCn1ccc(C(=O)NC2CCCC3(CCC3)C2)n1

>  <HIPPO Compound ID>  (1836) 
30611

>  <alias>  (1836) 
XRFRFFOYEKUNML-UHFFFAOYSA-N-P12

>  <subsites>  (1836) 


>  <placement_batch>  (1836) 
CpKRS_FrAncestor_bulkdock_iter2

>  <name>  (1836) 
XRFRFFOYEKUNML-UHFFFAOYSA-N-P12

$$$$
RJEBPIDYYRFFLY-UHFFFAOYSA-N-P14
     RDKit          3D

 20 22  0  0  0  0  0  0  0  0999 V2000
   -1.4606  -12.5752   25.8652 C   0  0  0  0  0  0  0  0  0  0  0  0
   -0.5387  -13.2055   26.5285 C   0  0  0  0  0  0  0  0  0  0  0  0
    0.3920  -13.8326   27.1880 C   0  0  0  0  0  0  0  0  0  0  0  0
    1.6758  -13.9535   26.6930 N   0  0  0  0  0  0  0  0  0  0  0  0
    2.6702  -14.7312   27.2558 C   0  0  0  0  0  0  0  0  0  0  0  0
    3.8129  -14.5292   26.5222 C   0  0  0  0  0  0  0  0  0  0  0  0
    3.4369  -13.5986   25.5353 C   0  0  0  0  0  0  0  0  0  0  0  0
    4.2719  -12.8361   24.6036 C   0  0  0  0  0  0  0  0  0  0  0  0
    5.4332  -12.9154   24.5767 O   0  0  0  0  0  0  0  0  0  0  0  0
    3.3181  -11.9155   23.8270 N   0  0  0  0  0  0  0  0  0  0  0  0
    3.5928  -10.8406   22.9299 C   0  0  2  0  0  0  0  0  0  0  0  0
    4.7418  -11.1187   21.9730 C   0  0  0  0  0  0  0  0  0  0  0  0
    5.1443   -9.8965   21.1496 C   0  0  0  0  0  0  0  0  0  0  0  0
    4.8115   -8.5575   21.7873 C   0  0  0  0  0  0  0  0  0  0  0  0
    4.8901   -8.7000   23.2932 C   0  0  0  0  0  0  0  0  0  0  0  0
    6.2823   -9.0457   23.8481 C   0  0  0  0  0  0  0  0  0  0  0  0
    6.1634   -7.9099   24.8480 C   0  0  0  0  0  0  0  0  0  0  0  0
    4.9892   -7.3792   24.0691 C   0  0  0  0  0  0  0  0  0  0  0  0
    3.7703   -9.5890   23.8000 C   0  0  0  0  0  0  0  0  0  0  0  0
    2.1228  -13.3194   25.5985 N   0  0  0  0  0  0  0  0  0  0  0  0
  1  2  2  0
  2  3  2  0
  3  4  1  0
  4  5  1  0
  5  6  2  0
  6  7  1  0
  7  8  1  0
  8  9  2  0
  8 10  1  0
 11 10  1  1
 11 12  1  0
 12 13  1  0
 13 14  1  0
 14 15  1  0
 15 16  1  0
 16 17  1  0
 17 18  1  0
 15 19  1  0
  7 20  2  0
 20  4  1  0
 19 11  1  0
 18 15  1  0
M  END
>  <inchikey>  (1837) 
RJEBPIDYYRFFLY-UHFFFAOYSA-N

>  <tags>  (1837) 
fragmenstein_placed,CpKRS_FrAncestor_bulkdock_iter2

>  <ref_pdb>  (1837) 
x0421a

>  <energy_score>  (1837) 
-48.266608

>  <distance_score>  (1837) 
0.754856

>  <HIPPO Pose ID>  (1837) 
62375

>  <ref_mols>  (1837) 
x0421d

>  <smiles>  (1837) 
C=C=Cn1ccc(C(=O)NC2CCCC3(CCC3)C2)n1

>  <HIPPO Compound ID>  (1837) 
30612

>  <alias>  (1837) 
RJEBPIDYYRFFLY-UHFFFAOYSA-N-P14

>  <subsites>  (1837) 


>  <placement_batch>  (1837) 
CpKRS_FrAncestor_bulkdock_iter2

>  <name>  (1837) 
RJEBPIDYYRFFLY-UHFFFAOYSA-N-P14

$$$$
DVQPZHTXNPEJEL-UHFFFAOYSA-N-P14
     RDKit          3D

 21 23  0  0  0  0  0  0  0  0999 V2000
   -1.2519  -13.1207   25.9146 C   0  0  0  0  0  0  0  0  0  0  0  0
   -0.3581  -13.4654   26.6408 C   0  0  0  0  0  0  0  0  0  0  0  0
    0.7547  -13.8237   27.5439 C   0  0  0  0  0  0  0  0  0  0  0  0
    1.9865  -14.1276   26.8500 N   0  0  0  0  0  0  0  0  0  0  0  0
    2.9637  -14.9913   27.2397 C   0  0  0  0  0  0  0  0  0  0  0  0
    4.0382  -14.7226   26.4222 C   0  0  0  0  0  0  0  0  0  0  0  0
    3.5887  -13.7105   25.5407 C   0  0  0  0  0  0  0  0  0  0  0  0
    4.3188  -12.9166   24.5498 C   0  0  0  0  0  0  0  0  0  0  0  0
    5.4791  -12.9260   24.4575 O   0  0  0  0  0  0  0  0  0  0  0  0
    3.2678  -12.0707   23.8146 N   0  0  0  0  0  0  0  0  0  0  0  0
    3.4250  -10.9966   22.8845 C   0  0  2  0  0  0  0  0  0  0  0  0
    4.4815  -11.2100   21.8100 C   0  0  0  0  0  0  0  0  0  0  0  0
    4.8596   -9.9301   21.0473 C   0  0  0  0  0  0  0  0  0  0  0  0
    4.6250   -8.6224   21.8014 C   0  0  0  0  0  0  0  0  0  0  0  0
    4.7771   -8.8480   23.2955 C   0  0  0  0  0  0  0  0  0  0  0  0
    6.1255   -9.4721   23.5970 C   0  0  0  0  0  0  0  0  0  0  0  0
    6.7599   -8.6688   24.6877 C   0  0  0  0  0  0  0  0  0  0  0  0
    5.6597   -7.8602   25.3167 C   0  0  0  0  0  0  0  0  0  0  0  0
    4.7691   -7.5828   24.1370 C   0  0  0  0  0  0  0  0  0  0  0  0
    3.6221   -9.7405   23.7385 C   0  0  0  0  0  0  0  0  0  0  0  0
    2.3105  -13.3736   25.8018 N   0  0  0  0  0  0  0  0  0  0  0  0
  1  2  3  0
  2  3  1  0
  3  4  1  0
  4  5  1  0
  5  6  2  0
  6  7  1  0
  7  8  1  0
  8  9  2  0
  8 10  1  0
 11 10  1  1
 11 12  1  0
 12 13  1  0
 13 14  1  0
 14 15  1  0
 15 16  1  0
 16 17  1  0
 17 18  1  0
 18 19  1  0
 15 20  1  0
  7 21  2  0
 21  4  1  0
 20 11  1  0
 19 15  1  0
M  END
>  <inchikey>  (1838) 
DVQPZHTXNPEJEL-UHFFFAOYSA-N

>  <tags>  (1838) 
fragmenstein_placed,CpKRS_FrAncestor_bulkdock_iter2

>  <ref_pdb>  (1838) 
x0421a

>  <energy_score>  (1838) 
-6.403536

>  <distance_score>  (1838) 
0.916088

>  <HIPPO Pose ID>  (1838) 
62379

>  <ref_mols>  (1838) 
x0421d

>  <smiles>  (1838) 
C#CCn1ccc(C(=O)NC2CCCC3(CCCC3)C2)n1

>  <HIPPO Compound ID>  (1838) 
30613

>  <alias>  (1838) 
DVQPZHTXNPEJEL-UHFFFAOYSA-N-P14

>  <subsites>  (1838) 


>  <placement_batch>  (1838) 
CpKRS_FrAncestor_bulkdock_iter2

>  <name>  (1838) 
DVQPZHTXNPEJEL-UHFFFAOYSA-N-P14

$$$$
ZKWBRPLBRWOZAS-UHFFFAOYSA-N-P13
     RDKit          3D

 19 20  0  0  0  0  0  0  0  0999 V2000
   -1.1788  -12.2763   25.6233 C   0  0  0  0  0  0  0  0  0  0  0  0
   -0.4279  -13.2015   26.1396 C   0  0  0  0  0  0  0  0  0  0  0  0
    0.3235  -14.1325   26.6461 C   0  0  0  0  0  0  0  0  0  0  0  0
    1.6986  -14.2032   26.4185 N   0  0  0  0  0  0  0  0  0  0  0  0
    2.4808  -15.2469   26.8858 C   0  0  0  0  0  0  0  0  0  0  0  0
    3.7553  -15.0583   26.4254 C   0  0  0  0  0  0  0  0  0  0  0  0
    3.7105  -13.8360   25.7266 C   0  0  0  0  0  0  0  0  0  0  0  0
    4.8537  -13.1689   25.0659 C   0  0  0  0  0  0  0  0  0  0  0  0
    5.8140  -13.7672   24.7893 O   0  0  0  0  0  0  0  0  0  0  0  0
    4.4888  -11.6962   24.8119 N   0  0  0  0  0  0  0  0  0  0  0  0
    5.1929  -10.6649   24.0752 C   0  0  2  0  0  0  0  0  0  0  0  0
    5.0937   -9.2609   24.6999 C   0  0  0  0  0  0  0  0  0  0  0  0
    5.8263   -8.2192   23.8547 C   0  0  0  0  0  0  0  0  0  0  0  0
    5.3418   -8.2081   22.4167 C   0  0  0  0  0  0  0  0  0  0  0  0
    5.3881   -9.5893   21.7921 C   0  0  0  0  0  0  0  0  0  0  0  0
    4.6596  -10.6595   22.6333 C   0  0  0  0  0  0  0  0  0  0  0  0
    4.9352  -12.0128   21.9672 C   0  0  0  0  0  0  0  0  0  0  0  0
    3.1358  -10.4031   22.6914 C   0  0  0  0  0  0  0  0  0  0  0  0
    2.4659  -13.3150   25.7237 N   0  0  0  0  0  0  0  0  0  0  0  0
  1  2  2  0
  2  3  2  0
  3  4  1  0
  4  5  1  0
  5  6  2  0
  6  7  1  0
  7  8  1  0
  8  9  2  0
  8 10  1  0
 11 10  1  1
 11 12  1  0
 12 13  1  0
 13 14  1  0
 14 15  1  0
 15 16  1  0
 16 17  1  0
 16 18  1  0
  7 19  2  0
 19  4  1  0
 16 11  1  0
M  END
>  <inchikey>  (1839) 
ZKWBRPLBRWOZAS-UHFFFAOYSA-N

>  <tags>  (1839) 
fragmenstein_placed,CpKRS_FrAncestor_bulkdock_iter2

>  <ref_pdb>  (1839) 
x0421a

>  <energy_score>  (1839) 
-34.591525

>  <distance_score>  (1839) 
0.519769

>  <HIPPO Pose ID>  (1839) 
62382

>  <ref_mols>  (1839) 
x0421c

>  <smiles>  (1839) 
C=C=Cn1ccc(C(=O)NC2CCCCC2(C)C)n1

>  <HIPPO Compound ID>  (1839) 
30614

>  <alias>  (1839) 
ZKWBRPLBRWOZAS-UHFFFAOYSA-N-P13

>  <subsites>  (1839) 


>  <placement_batch>  (1839) 
CpKRS_FrAncestor_bulkdock_iter2

>  <name>  (1839) 
ZKWBRPLBRWOZAS-UHFFFAOYSA-N-P13

$$$$
GMXYLKRTRLQNBQ-UHFFFAOYSA-N-P11
     RDKit          3D

 19 20  0  0  0  0  0  0  0  0999 V2000
   -1.3226  -14.7613   24.7925 C   0  0  0  0  0  0  0  0  0  0  0  0
   -0.5808  -14.4225   25.6749 C   0  0  0  0  0  0  0  0  0  0  0  0
    0.3215  -13.9723   26.7449 C   0  0  0  0  0  0  0  0  0  0  0  0
    1.7294  -14.1871   26.4547 N   0  0  0  0  0  0  0  0  0  0  0  0
    2.4945  -15.2040   26.9422 C   0  0  0  0  0  0  0  0  0  0  0  0
    3.7705  -14.9470   26.5113 C   0  0  0  0  0  0  0  0  0  0  0  0
    3.6867  -13.7448   25.7619 C   0  0  0  0  0  0  0  0  0  0  0  0
    4.8113  -13.0505   25.0917 C   0  0  0  0  0  0  0  0  0  0  0  0
    5.8640  -13.5440   25.0186 O   0  0  0  0  0  0  0  0  0  0  0  0
    4.3073  -11.6965   24.5674 N   0  0  0  0  0  0  0  0  0  0  0  0
    4.9674  -10.6992   23.7564 C   0  0  1  0  0  0  0  0  0  0  0  0
    4.6743  -11.0572   22.2915 C   0  0  0  0  0  0  0  0  0  0  0  0
    5.2861  -10.0673   21.3201 C   0  0  0  0  0  0  0  0  0  0  0  0
    4.8709   -8.6457   21.6165 C   0  0  0  0  0  0  0  0  0  0  0  0
    5.2496   -8.2862   23.0297 C   0  0  0  0  0  0  0  0  0  0  0  0
    4.6242   -9.2120   24.1006 C   0  0  0  0  0  0  0  0  0  0  0  0
    5.2767   -8.7203   25.4004 C   0  0  0  0  0  0  0  0  0  0  0  0
    3.1021   -9.0226   24.2365 C   0  0  0  0  0  0  0  0  0  0  0  0
    2.4208  -13.2618   25.7541 N   0  0  0  0  0  0  0  0  0  0  0  0
  1  2  3  0
  2  3  1  0
  3  4  1  0
  4  5  1  0
  5  6  2  0
  6  7  1  0
  7  8  1  0
  8  9  2  0
  8 10  1  0
 11 10  1  1
 11 12  1  0
 12 13  1  0
 13 14  1  0
 14 15  1  0
 15 16  1  0
 16 17  1  0
 16 18  1  0
  7 19  2  0
 19  4  1  0
 16 11  1  0
M  END
>  <inchikey>  (1840) 
GMXYLKRTRLQNBQ-UHFFFAOYSA-N

>  <tags>  (1840) 
fragmenstein_placed,CpKRS_FrAncestor_bulkdock_iter2

>  <ref_pdb>  (1840) 
x0421a

>  <energy_score>  (1840) 
-22.238302

>  <distance_score>  (1840) 
0.569062

>  <HIPPO Pose ID>  (1840) 
62384

>  <ref_mols>  (1840) 
x0421a

>  <smiles>  (1840) 
C#CCn1ccc(C(=O)NC2CCCCC2(C)C)n1

>  <HIPPO Compound ID>  (1840) 
30615

>  <alias>  (1840) 
GMXYLKRTRLQNBQ-UHFFFAOYSA-N-P11

>  <subsites>  (1840) 


>  <placement_batch>  (1840) 
CpKRS_FrAncestor_bulkdock_iter2

>  <name>  (1840) 
GMXYLKRTRLQNBQ-UHFFFAOYSA-N-P11

$$$$
YPFKBOWCFBRIFM-UHFFFAOYSA-N-P11
     RDKit          3D

 20 21  0  0  0  0  0  0  0  0999 V2000
   -1.3599  -14.6698   24.9115 C   0  0  0  0  0  0  0  0  0  0  0  0
   -0.6081  -14.4677   25.8266 C   0  0  0  0  0  0  0  0  0  0  0  0
    0.3021  -14.1809   26.9448 C   0  0  0  0  0  0  0  0  0  0  0  0
    1.7093  -14.2396   26.5917 N   0  0  0  0  0  0  0  0  0  0  0  0
    2.5902  -15.2003   26.9894 C   0  0  0  0  0  0  0  0  0  0  0  0
    3.8088  -14.8130   26.4945 C   0  0  0  0  0  0  0  0  0  0  0  0
    3.5710  -13.5936   25.8092 C   0  0  0  0  0  0  0  0  0  0  0  0
    4.5609  -12.8148   25.0334 C   0  0  0  0  0  0  0  0  0  0  0  0
    5.6304  -13.2384   24.8368 O   0  0  0  0  0  0  0  0  0  0  0  0
    3.8850  -11.5260   24.5180 N   0  0  0  0  0  0  0  0  0  0  0  0
    4.3523  -10.5301   23.5706 C   0  0  2  0  0  0  0  0  0  0  0  0
    5.0192  -11.3081   22.4421 C   0  0  0  0  0  0  0  0  0  0  0  0
    5.3763  -10.5109   21.2207 C   0  0  0  0  0  0  0  0  0  0  0  0
    4.5364   -9.2873   21.0286 C   0  0  0  0  0  0  0  0  0  0  0  0
    5.0577   -8.0597   21.7141 C   0  0  0  0  0  0  0  0  0  0  0  0
    5.7615   -8.3256   23.0115 C   0  0  0  0  0  0  0  0  0  0  0  0
    5.1310   -9.2632   24.0805 C   0  0  0  0  0  0  0  0  0  0  0  0
    4.1485   -8.4405   24.9323 C   0  0  0  0  0  0  0  0  0  0  0  0
    6.3431   -9.6049   24.9358 C   0  0  0  0  0  0  0  0  0  0  0  0
    2.2734  -13.2214   25.9084 N   0  0  0  0  0  0  0  0  0  0  0  0
  1  2  3  0
  2  3  1  0
  3  4  1  0
  4  5  1  0
  5  6  2  0
  6  7  1  0
  7  8  1  0
  8  9  2  0
  8 10  1  0
 11 10  1  1
 11 12  1  0
 12 13  1  0
 13 14  1  0
 14 15  1  0
 15 16  1  0
 16 17  1  0
 17 18  1  0
 17 19  1  0
  7 20  2  0
 20  4  1  0
 17 11  1  0
M  END
>  <inchikey>  (1841) 
YPFKBOWCFBRIFM-UHFFFAOYSA-N

>  <tags>  (1841) 
fragmenstein_placed,CpKRS_FrAncestor_bulkdock_iter2

>  <ref_pdb>  (1841) 
x0421a

>  <energy_score>  (1841) 
-3.546522

>  <distance_score>  (1841) 
0.49991

>  <HIPPO Pose ID>  (1841) 
62388

>  <ref_mols>  (1841) 
x0421a

>  <smiles>  (1841) 
C#CCn1ccc(C(=O)NC2CCCCCC2(C)C)n1

>  <HIPPO Compound ID>  (1841) 
30616

>  <alias>  (1841) 
YPFKBOWCFBRIFM-UHFFFAOYSA-N-P11

>  <subsites>  (1841) 


>  <placement_batch>  (1841) 
CpKRS_FrAncestor_bulkdock_iter2

>  <name>  (1841) 
YPFKBOWCFBRIFM-UHFFFAOYSA-N-P11

$$$$
ZHRSLVXANMHCET-UHFFFAOYSA-N-P11
     RDKit          3D

 18 19  0  0  0  0  0  0  0  0999 V2000
   -1.4011  -12.7554   26.3427 C   0  0  0  0  0  0  0  0  0  0  0  0
   -0.5218  -13.6362   26.7146 C   0  0  0  0  0  0  0  0  0  0  0  0
    0.3751  -14.5052   27.0786 C   0  0  0  0  0  0  0  0  0  0  0  0
    1.7024  -14.4103   26.6705 N   0  0  0  0  0  0  0  0  0  0  0  0
    2.6934  -15.2923   27.0620 C   0  0  0  0  0  0  0  0  0  0  0  0
    3.8685  -14.8794   26.4890 C   0  0  0  0  0  0  0  0  0  0  0  0
    3.5225  -13.7407   25.7382 C   0  0  0  0  0  0  0  0  0  0  0  0
    4.3984  -12.8909   24.9074 C   0  0  0  0  0  0  0  0  0  0  0  0
    5.5227  -13.1321   24.7196 O   0  0  0  0  0  0  0  0  0  0  0  0
    3.5215  -11.7482   24.3715 N   0  0  0  0  0  0  0  0  0  0  0  0
    3.8662  -10.5967   23.5601 C   0  0  0  0  0  0  0  0  0  0  0  0
    2.5511   -9.8099   23.3949 C   0  0  0  0  0  0  0  0  0  0  0  0
    4.9379   -9.7361   24.2481 C   0  0  0  0  0  0  0  0  0  0  0  0
    5.3922   -8.5192   23.4381 C   0  0  0  0  0  0  0  0  0  0  0  0
    5.1860   -8.6451   21.9356 C   0  0  0  0  0  0  0  0  0  0  0  0
    5.2915  -10.0801   21.4627 C   0  0  0  0  0  0  0  0  0  0  0  0
    4.4054  -11.0817   22.2029 C   0  0  0  0  0  0  0  0  0  0  0  0
    2.2130  -13.4435   25.8694 N   0  0  0  0  0  0  0  0  0  0  0  0
  1  2  2  0
  2  3  2  0
  3  4  1  0
  4  5  1  0
  5  6  2  0
  6  7  1  0
  7  8  1  0
  8  9  2  0
  8 10  1  0
 10 11  1  0
 11 12  1  0
 11 13  1  0
 13 14  1  0
 14 15  1  0
 15 16  1  0
 16 17  1  0
  7 18  2  0
 18  4  1  0
 17 11  1  0
M  END
>  <inchikey>  (1842) 
ZHRSLVXANMHCET-UHFFFAOYSA-N

>  <tags>  (1842) 
fragmenstein_placed,CpKRS_FrAncestor_bulkdock_iter2

>  <ref_pdb>  (1842) 
x0421a

>  <energy_score>  (1842) 
-23.000739

>  <distance_score>  (1842) 
0.550439

>  <HIPPO Pose ID>  (1842) 
62392

>  <ref_mols>  (1842) 
x0421a

>  <smiles>  (1842) 
C=C=Cn1ccc(C(=O)NC2(C)CCCCC2)n1

>  <HIPPO Compound ID>  (1842) 
30617

>  <alias>  (1842) 
ZHRSLVXANMHCET-UHFFFAOYSA-N-P11

>  <subsites>  (1842) 


>  <placement_batch>  (1842) 
CpKRS_FrAncestor_bulkdock_iter2

>  <name>  (1842) 
ZHRSLVXANMHCET-UHFFFAOYSA-N-P11

$$$$
TVAWNVSORHESPV-UHFFFAOYSA-N-P11
     RDKit          3D

 18 19  0  0  0  0  0  0  0  0999 V2000
   -1.1609  -12.5760   26.7332 C   0  0  0  0  0  0  0  0  0  0  0  0
   -0.4634  -13.5532   26.7845 C   0  0  0  0  0  0  0  0  0  0  0  0
    0.3747  -14.7640   26.8379 C   0  0  0  0  0  0  0  0  0  0  0  0
    1.7988  -14.5476   26.6309 N   0  0  0  0  0  0  0  0  0  0  0  0
    2.7962  -15.3487   27.1062 C   0  0  0  0  0  0  0  0  0  0  0  0
    3.9563  -14.8754   26.5447 C   0  0  0  0  0  0  0  0  0  0  0  0
    3.5643  -13.7752   25.7443 C   0  0  0  0  0  0  0  0  0  0  0  0
    4.4209  -12.9126   24.9057 C   0  0  0  0  0  0  0  0  0  0  0  0
    5.5567  -13.1177   24.7464 O   0  0  0  0  0  0  0  0  0  0  0  0
    3.5242  -11.7926   24.3555 N   0  0  0  0  0  0  0  0  0  0  0  0
    3.8555  -10.6224   23.5619 C   0  0  0  0  0  0  0  0  0  0  0  0
    2.5305   -9.8540   23.3938 C   0  0  0  0  0  0  0  0  0  0  0  0
    4.9106   -9.7524   24.2637 C   0  0  0  0  0  0  0  0  0  0  0  0
    5.3621   -8.5268   23.4647 C   0  0  0  0  0  0  0  0  0  0  0  0
    5.1644   -8.6405   21.9601 C   0  0  0  0  0  0  0  0  0  0  0  0
    5.2893  -10.0695   21.4746 C   0  0  0  0  0  0  0  0  0  0  0  0
    4.4129  -11.0879   22.2037 C   0  0  0  0  0  0  0  0  0  0  0  0
    2.2328  -13.5515   25.8393 N   0  0  0  0  0  0  0  0  0  0  0  0
  1  2  3  0
  2  3  1  0
  3  4  1  0
  4  5  1  0
  5  6  2  0
  6  7  1  0
  7  8  1  0
  8  9  2  0
  8 10  1  0
 10 11  1  0
 11 12  1  0
 11 13  1  0
 13 14  1  0
 14 15  1  0
 15 16  1  0
 16 17  1  0
  7 18  2  0
 18  4  1  0
 17 11  1  0
M  END
>  <inchikey>  (1843) 
TVAWNVSORHESPV-UHFFFAOYSA-N

>  <tags>  (1843) 
fragmenstein_placed,CpKRS_FrAncestor_bulkdock_iter2

>  <ref_pdb>  (1843) 
x0421a

>  <energy_score>  (1843) 
-14.837004

>  <distance_score>  (1843) 
0.59857

>  <HIPPO Pose ID>  (1843) 
62396

>  <ref_mols>  (1843) 
x0421a

>  <smiles>  (1843) 
C#CCn1ccc(C(=O)NC2(C)CCCCC2)n1

>  <HIPPO Compound ID>  (1843) 
30618

>  <alias>  (1843) 
TVAWNVSORHESPV-UHFFFAOYSA-N-P11

>  <subsites>  (1843) 


>  <placement_batch>  (1843) 
CpKRS_FrAncestor_bulkdock_iter2

>  <name>  (1843) 
TVAWNVSORHESPV-UHFFFAOYSA-N-P11

$$$$
VXBBLEHMYDJRPC-UHFFFAOYSA-N-P11
     RDKit          3D

 18 19  0  0  0  0  0  0  0  0999 V2000
   -0.4885  -13.0697   26.9436 C   0  0  0  0  0  0  0  0  0  0  0  0
    0.0911  -14.4502   26.6371 C   0  0  0  0  0  0  0  0  0  0  0  0
   -0.6124  -15.0540   25.4258 C   0  0  0  0  0  0  0  0  0  0  0  0
    1.5348  -14.4166   26.4636 N   0  0  0  0  0  0  0  0  0  0  0  0
    2.4493  -15.2766   26.9908 C   0  0  0  0  0  0  0  0  0  0  0  0
    3.6697  -14.8732   26.4989 C   0  0  0  0  0  0  0  0  0  0  0  0
    3.3935  -13.7454   25.6897 C   0  0  0  0  0  0  0  0  0  0  0  0
    4.3298  -12.9012   24.9159 C   0  0  0  0  0  0  0  0  0  0  0  0
    5.4653  -13.1379   24.8003 O   0  0  0  0  0  0  0  0  0  0  0  0
    3.5059  -11.7007   24.4199 N   0  0  0  0  0  0  0  0  0  0  0  0
    3.8860  -10.5780   23.5915 C   0  0  0  0  0  0  0  0  0  0  0  0
    2.5970   -9.7577   23.3873 C   0  0  0  0  0  0  0  0  0  0  0  0
    4.9661   -9.7242   24.2825 C   0  0  0  0  0  0  0  0  0  0  0  0
    5.4562   -8.5635   23.4214 C   0  0  0  0  0  0  0  0  0  0  0  0
    5.8822   -9.0061   22.0326 C   0  0  0  0  0  0  0  0  0  0  0  0
    4.8921   -9.9290   21.3542 C   0  0  0  0  0  0  0  0  0  0  0  0
    4.4392  -11.0775   22.2470 C   0  0  0  0  0  0  0  0  0  0  0  0
    2.0738  -13.4440   25.7171 N   0  0  0  0  0  0  0  0  0  0  0  0
  1  2  1  0
  2  3  1  0
  2  4  1  0
  4  5  1  0
  5  6  2  0
  6  7  1  0
  7  8  1  0
  8  9  2  0
  8 10  1  0
 10 11  1  0
 11 12  1  0
 11 13  1  0
 13 14  1  0
 14 15  1  0
 15 16  1  0
 16 17  1  0
  7 18  2  0
 18  4  1  0
 17 11  1  0
M  END
>  <inchikey>  (1844) 
VXBBLEHMYDJRPC-UHFFFAOYSA-N

>  <tags>  (1844) 
fragmenstein_placed,CpKRS_FrAncestor_bulkdock_iter2

>  <ref_pdb>  (1844) 
x0421a

>  <energy_score>  (1844) 
-29.134537

>  <distance_score>  (1844) 
0.535981

>  <HIPPO Pose ID>  (1844) 
62400

>  <ref_mols>  (1844) 
x0421a

>  <smiles>  (1844) 
CC(C)n1ccc(C(=O)NC2(C)CCCCC2)n1

>  <HIPPO Compound ID>  (1844) 
30619

>  <alias>  (1844) 
VXBBLEHMYDJRPC-UHFFFAOYSA-N-P11

>  <subsites>  (1844) 


>  <placement_batch>  (1844) 
CpKRS_FrAncestor_bulkdock_iter2

>  <name>  (1844) 
VXBBLEHMYDJRPC-UHFFFAOYSA-N-P11

$$$$
PBHSGUDADONKDP-UHFFFAOYSA-N-P13
     RDKit          3D

 19 20  0  0  0  0  0  0  0  0999 V2000
   -1.6674  -12.6558   25.8852 C   0  0  0  0  0  0  0  0  0  0  0  0
   -0.7660  -13.4865   26.3142 C   0  0  0  0  0  0  0  0  0  0  0  0
    0.1424  -14.3108   26.7461 C   0  0  0  0  0  0  0  0  0  0  0  0
    1.4642  -14.2423   26.3196 N   0  0  0  0  0  0  0  0  0  0  0  0
    2.4591  -15.1087   26.7398 C   0  0  0  0  0  0  0  0  0  0  0  0
    3.6404  -14.6898   26.1833 C   0  0  0  0  0  0  0  0  0  0  0  0
    3.2947  -13.5563   25.4217 C   0  0  0  0  0  0  0  0  0  0  0  0
    4.1949  -12.6394   24.6995 C   0  0  0  0  0  0  0  0  0  0  0  0
    5.3475  -12.8100   24.6637 O   0  0  0  0  0  0  0  0  0  0  0  0
    3.3400  -11.4799   24.1550 N   0  0  0  0  0  0  0  0  0  0  0  0
    3.7119  -10.3328   23.3693 C   0  0  2  0  0  0  0  0  0  0  0  0
    4.7000  -10.7178   22.2685 C   0  0  0  0  0  0  0  0  0  0  0  0
    5.3483   -9.5342   21.5691 C   0  0  0  0  0  0  0  0  0  0  0  0
    5.4077   -8.2540   22.3908 C   0  0  0  0  0  0  0  0  0  0  0  0
    5.4442   -8.4685   23.9050 C   0  0  0  0  0  0  0  0  0  0  0  0
    5.5931   -7.1309   24.6475 C   0  0  0  0  0  0  0  0  0  0  0  0
    6.6542   -9.2651   24.3582 C   0  0  0  0  0  0  0  0  0  0  0  0
    4.1586   -9.1944   24.3109 C   0  0  0  0  0  0  0  0  0  0  0  0
    1.9682  -13.3331   25.4496 N   0  0  0  0  0  0  0  0  0  0  0  0
  1  2  2  0
  2  3  2  0
  3  4  1  0
  4  5  1  0
  5  6  2  0
  6  7  1  0
  7  8  1  0
  8  9  2  0
  8 10  1  0
 11 10  1  1
 11 12  1  0
 12 13  1  0
 13 14  1  0
 14 15  1  0
 15 16  1  0
 15 17  1  0
 15 18  1  0
  7 19  2  0
 19  4  1  0
 18 11  1  0
M  END
>  <inchikey>  (1845) 
PBHSGUDADONKDP-UHFFFAOYSA-N

>  <tags>  (1845) 
fragmenstein_placed,CpKRS_FrAncestor_bulkdock_iter2

>  <ref_pdb>  (1845) 
x0421a

>  <energy_score>  (1845) 
-37.123776

>  <distance_score>  (1845) 
0.685621

>  <HIPPO Pose ID>  (1845) 
62406

>  <ref_mols>  (1845) 
x0421c

>  <smiles>  (1845) 
C=C=Cn1ccc(C(=O)NC2CCCC(C)(C)C2)n1

>  <HIPPO Compound ID>  (1845) 
30620

>  <alias>  (1845) 
PBHSGUDADONKDP-UHFFFAOYSA-N-P13

>  <subsites>  (1845) 


>  <placement_batch>  (1845) 
CpKRS_FrAncestor_bulkdock_iter2

>  <name>  (1845) 
PBHSGUDADONKDP-UHFFFAOYSA-N-P13

$$$$
GVKJCQNQCGGLQZ-UHFFFAOYSA-N-P14
     RDKit          3D

 19 20  0  0  0  0  0  0  0  0999 V2000
   -1.2965  -13.8042   23.6053 C   0  0  0  0  0  0  0  0  0  0  0  0
   -0.8887  -13.5803   24.7131 C   0  0  0  0  0  0  0  0  0  0  0  0
   -0.3923  -13.2733   26.0646 C   0  0  0  0  0  0  0  0  0  0  0  0
    1.0071  -13.6026   26.2728 N   0  0  0  0  0  0  0  0  0  0  0  0
    1.5528  -14.4082   27.2282 C   0  0  0  0  0  0  0  0  0  0  0  0
    2.8880  -14.5126   26.9134 C   0  0  0  0  0  0  0  0  0  0  0  0
    3.0623  -13.6847   25.7808 C   0  0  0  0  0  0  0  0  0  0  0  0
    4.2931  -13.4065   25.0288 C   0  0  0  0  0  0  0  0  0  0  0  0
    5.3270  -13.8572   25.3187 O   0  0  0  0  0  0  0  0  0  0  0  0
    3.9211  -12.3872   23.9442 N   0  0  0  0  0  0  0  0  0  0  0  0
    4.7484  -11.6366   23.0516 C   0  0  0  0  0  0  0  0  0  0  0  0
    3.9420  -10.7736   22.0879 C   0  0  0  0  0  0  0  0  0  0  0  0
    3.6032   -9.4022   22.6940 C   0  0  0  0  0  0  0  0  0  0  0  0
    4.8538   -8.5893   23.1237 C   0  0  0  0  0  0  0  0  0  0  0  0
    5.2510   -7.6039   22.0400 C   0  0  0  0  0  0  0  0  0  0  0  0
    4.6091   -7.8549   24.4605 C   0  0  0  0  0  0  0  0  0  0  0  0
    6.0537   -9.5038   23.3015 C   0  0  0  0  0  0  0  0  0  0  0  0
    5.5673  -10.7524   23.9733 C   0  0  0  0  0  0  0  0  0  0  0  0
    1.9143  -13.0424   25.4688 N   0  0  0  0  0  0  0  0  0  0  0  0
  1  2  3  0
  2  3  1  0
  3  4  1  0
  4  5  1  0
  5  6  2  0
  6  7  1  0
  7  8  1  0
  8  9  2  0
  8 10  1  0
 10 11  1  0
 11 12  1  0
 12 13  1  0
 13 14  1  0
 14 15  1  0
 14 16  1  0
 14 17  1  0
 17 18  1  0
  7 19  2  0
 19  4  1  0
 18 11  1  0
M  END
>  <inchikey>  (1846) 
GVKJCQNQCGGLQZ-UHFFFAOYSA-N

>  <tags>  (1846) 
fragmenstein_placed,CpKRS_FrAncestor_bulkdock_iter2

>  <ref_pdb>  (1846) 
x0421a

>  <energy_score>  (1846) 
-9.847071

>  <distance_score>  (1846) 
0.932138

>  <HIPPO Pose ID>  (1846) 
62411

>  <ref_mols>  (1846) 
x0421d

>  <smiles>  (1846) 
C#CCn1ccc(C(=O)NC2CCC(C)(C)CC2)n1

>  <HIPPO Compound ID>  (1846) 
30621

>  <alias>  (1846) 
GVKJCQNQCGGLQZ-UHFFFAOYSA-N-P14

>  <subsites>  (1846) 


>  <placement_batch>  (1846) 
CpKRS_FrAncestor_bulkdock_iter2

>  <name>  (1846) 
GVKJCQNQCGGLQZ-UHFFFAOYSA-N-P14

$$$$
HPNBSRABOITKBO-UHFFFAOYSA-N-P13
     RDKit          3D

 19 20  0  0  0  0  0  0  0  0999 V2000
   -1.4924  -14.7336   24.3973 C   0  0  0  0  0  0  0  0  0  0  0  0
   -0.7716  -14.2638   25.2358 C   0  0  0  0  0  0  0  0  0  0  0  0
    0.1022  -13.6186   26.2262 C   0  0  0  0  0  0  0  0  0  0  0  0
    1.5073  -13.9604   26.0677 N   0  0  0  0  0  0  0  0  0  0  0  0
    2.1189  -15.0947   26.5115 C   0  0  0  0  0  0  0  0  0  0  0  0
    3.4308  -14.9914   26.1275 C   0  0  0  0  0  0  0  0  0  0  0  0
    3.5406  -13.7209   25.5079 C   0  0  0  0  0  0  0  0  0  0  0  0
    4.7774  -13.1199   24.9730 C   0  0  0  0  0  0  0  0  0  0  0  0
    5.7303  -13.7707   24.8127 O   0  0  0  0  0  0  0  0  0  0  0  0
    4.5520  -11.6122   24.7611 N   0  0  0  0  0  0  0  0  0  0  0  0
    5.4783  -10.5688   24.3974 C   0  0  2  0  0  0  0  0  0  0  0  0
    5.2228   -9.1930   25.0513 C   0  0  0  0  0  0  0  0  0  0  0  0
    5.7855   -8.0387   24.2430 C   0  0  0  0  0  0  0  0  0  0  0  0
    5.3811   -8.0720   22.7841 C   0  0  0  0  0  0  0  0  0  0  0  0
    4.7502   -9.3947   22.3270 C   0  0  0  0  0  0  0  0  0  0  0  0
    3.2659   -9.5111   22.6850 C   0  0  0  0  0  0  0  0  0  0  0  0
    4.9409   -9.4985   20.8396 C   0  0  0  0  0  0  0  0  0  0  0  0
    5.5523  -10.5432   22.8946 C   0  0  0  0  0  0  0  0  0  0  0  0
    2.3526  -13.0774   25.4995 N   0  0  0  0  0  0  0  0  0  0  0  0
  1  2  3  0
  2  3  1  0
  3  4  1  0
  4  5  1  0
  5  6  2  0
  6  7  1  0
  7  8  1  0
  8  9  2  0
  8 10  1  0
 11 10  1  6
 11 12  1  0
 12 13  1  0
 13 14  1  0
 14 15  1  0
 15 16  1  0
 15 17  1  0
 15 18  1  0
  7 19  2  0
 19  4  1  0
 18 11  1  0
M  END
>  <inchikey>  (1847) 
HPNBSRABOITKBO-UHFFFAOYSA-N

>  <tags>  (1847) 
fragmenstein_placed,CpKRS_FrAncestor_bulkdock_iter2

>  <ref_pdb>  (1847) 
x0421a

>  <energy_score>  (1847) 
-20.112711

>  <distance_score>  (1847) 
0.700444

>  <HIPPO Pose ID>  (1847) 
62414

>  <ref_mols>  (1847) 
x0421c

>  <smiles>  (1847) 
C#CCn1ccc(C(=O)NC2CCCC(C)(C)C2)n1

>  <HIPPO Compound ID>  (1847) 
30622

>  <alias>  (1847) 
HPNBSRABOITKBO-UHFFFAOYSA-N-P13

>  <subsites>  (1847) 


>  <placement_batch>  (1847) 
CpKRS_FrAncestor_bulkdock_iter2

>  <name>  (1847) 
HPNBSRABOITKBO-UHFFFAOYSA-N-P13

$$$$
FWGUQWLKPDATRU-UHFFFAOYSA-N-P14
     RDKit          3D

 19 20  0  0  0  0  0  0  0  0999 V2000
   -1.2124  -12.6044   25.8799 C   0  0  0  0  0  0  0  0  0  0  0  0
   -0.3872  -13.2557   26.6431 C   0  0  0  0  0  0  0  0  0  0  0  0
    0.4434  -13.9220   27.3927 C   0  0  0  0  0  0  0  0  0  0  0  0
    1.7120  -14.2370   26.9574 N   0  0  0  0  0  0  0  0  0  0  0  0
    2.5845  -15.1168   27.5712 C   0  0  0  0  0  0  0  0  0  0  0  0
    3.7807  -15.0499   26.8963 C   0  0  0  0  0  0  0  0  0  0  0  0
    3.5572  -14.0832   25.9022 C   0  0  0  0  0  0  0  0  0  0  0  0
    4.5088  -13.3245   25.0960 C   0  0  0  0  0  0  0  0  0  0  0  0
    5.6399  -13.5796   24.9822 O   0  0  0  0  0  0  0  0  0  0  0  0
    3.6982  -12.1293   24.5686 N   0  0  0  0  0  0  0  0  0  0  0  0
    4.1159  -10.9697   23.8845 C   0  0  0  0  0  0  0  0  0  0  0  0
    3.2681  -10.5731   22.7030 C   0  0  0  0  0  0  0  0  0  0  0  0
    3.7261   -9.2195   22.1443 C   0  0  0  0  0  0  0  0  0  0  0  0
    4.8974   -8.5589   22.8897 C   0  0  0  0  0  0  0  0  0  0  0  0
    5.4302   -7.4086   22.0629 C   0  0  0  0  0  0  0  0  0  0  0  0
    4.5649   -8.0089   24.2981 C   0  0  0  0  0  0  0  0  0  0  0  0
    6.0173   -9.5828   22.9770 C   0  0  0  0  0  0  0  0  0  0  0  0
    5.5732  -10.9283   23.5227 C   0  0  0  0  0  0  0  0  0  0  0  0
    2.2707  -13.6953   25.8742 N   0  0  0  0  0  0  0  0  0  0  0  0
  1  2  2  0
  2  3  2  0
  3  4  1  0
  4  5  1  0
  5  6  2  0
  6  7  1  0
  7  8  1  0
  8  9  2  0
  8 10  1  0
 10 11  1  0
 11 12  1  0
 12 13  1  0
 13 14  1  0
 14 15  1  0
 14 16  1  0
 14 17  1  0
 17 18  1  0
  7 19  2  0
 19  4  1  0
 18 11  1  0
M  END
>  <inchikey>  (1848) 
FWGUQWLKPDATRU-UHFFFAOYSA-N

>  <tags>  (1848) 
fragmenstein_placed,CpKRS_FrAncestor_bulkdock_iter2

>  <ref_pdb>  (1848) 
x0421a

>  <energy_score>  (1848) 
-16.61108

>  <distance_score>  (1848) 
0.966483

>  <HIPPO Pose ID>  (1848) 
62419

>  <ref_mols>  (1848) 
x0421d

>  <smiles>  (1848) 
C=C=Cn1ccc(C(=O)NC2CCC(C)(C)CC2)n1

>  <HIPPO Compound ID>  (1848) 
30623

>  <alias>  (1848) 
FWGUQWLKPDATRU-UHFFFAOYSA-N-P14

>  <subsites>  (1848) 


>  <placement_batch>  (1848) 
CpKRS_FrAncestor_bulkdock_iter2

>  <name>  (1848) 
FWGUQWLKPDATRU-UHFFFAOYSA-N-P14

$$$$
PSTBXAXZXKCXQI-UHFFFAOYSA-N-P13
     RDKit          3D

 20 21  0  0  0  0  0  0  0  0999 V2000
   -1.5206  -14.2607   25.3108 C   0  0  0  0  0  0  0  0  0  0  0  0
   -0.6339  -14.3338   26.1182 C   0  0  0  0  0  0  0  0  0  0  0  0
    0.4478  -14.3775   27.1142 C   0  0  0  0  0  0  0  0  0  0  0  0
    1.7293  -14.7970   26.5685 N   0  0  0  0  0  0  0  0  0  0  0  0
    2.5097  -15.8315   26.9920 C   0  0  0  0  0  0  0  0  0  0  0  0
    3.7037  -15.7144   26.3207 C   0  0  0  0  0  0  0  0  0  0  0  0
    3.5678  -14.5529   25.5337 C   0  0  0  0  0  0  0  0  0  0  0  0
    4.6114  -13.8101   24.8094 C   0  0  0  0  0  0  0  0  0  0  0  0
    5.7206  -14.1513   24.7405 O   0  0  0  0  0  0  0  0  0  0  0  0
    3.9342  -12.5335   24.3116 N   0  0  0  0  0  0  0  0  0  0  0  0
    4.4872  -11.3651   23.7095 C   0  0  1  0  0  0  0  0  0  0  0  0
    4.7310  -11.4640   22.2172 C   0  0  0  0  0  0  0  0  0  0  0  0
    5.0141  -10.1277   21.5314 C   0  0  0  0  0  0  0  0  0  0  0  0
    5.9846   -9.1666   22.2247 C   0  0  0  0  0  0  0  0  0  0  0  0
    5.5709   -8.5741   23.5991 C   0  0  0  0  0  0  0  0  0  0  0  0
    6.4826   -9.0470   24.7349 C   0  0  0  0  0  0  0  0  0  0  0  0
    5.7742   -7.0531   23.5973 C   0  0  0  0  0  0  0  0  0  0  0  0
    4.0858   -8.8028   23.8675 C   0  0  0  0  0  0  0  0  0  0  0  0
    3.6037  -10.2065   24.1428 C   0  0  0  0  0  0  0  0  0  0  0  0
    2.3252  -14.0277   25.6472 N   0  0  0  0  0  0  0  0  0  0  0  0
  1  2  3  0
  2  3  1  0
  3  4  1  0
  4  5  1  0
  5  6  2  0
  6  7  1  0
  7  8  1  0
  8  9  2  0
  8 10  1  0
 11 10  1  6
 11 12  1  0
 12 13  1  0
 13 14  1  0
 14 15  1  0
 15 16  1  0
 15 17  1  0
 15 18  1  0
 18 19  1  0
  7 20  2  0
 20  4  1  0
 19 11  1  0
M  END
>  <inchikey>  (1849) 
PSTBXAXZXKCXQI-UHFFFAOYSA-N

>  <tags>  (1849) 
fragmenstein_placed,CpKRS_FrAncestor_bulkdock_iter2

>  <ref_pdb>  (1849) 
x0421a

>  <energy_score>  (1849) 
-14.3438

>  <distance_score>  (1849) 
0.976788

>  <HIPPO Pose ID>  (1849) 
62422

>  <ref_mols>  (1849) 
x0421c

>  <smiles>  (1849) 
C#CCn1ccc(C(=O)NC2CCCC(C)(C)CC2)n1

>  <HIPPO Compound ID>  (1849) 
30624

>  <alias>  (1849) 
PSTBXAXZXKCXQI-UHFFFAOYSA-N-P13

>  <subsites>  (1849) 


>  <placement_batch>  (1849) 
CpKRS_FrAncestor_bulkdock_iter2

>  <name>  (1849) 
PSTBXAXZXKCXQI-UHFFFAOYSA-N-P13

$$$$
TZZIUDUILXHMMP-UHFFFAOYSA-N-P20
     RDKit          3D

 15 16  0  0  0  0  0  0  0  0999 V2000
    0.4524    6.4529   46.4316 C   0  0  0  0  0  0  0  0  0  0  0  0
    1.5965    6.4761   46.0873 C   0  0  0  0  0  0  0  0  0  0  0  0
    3.0204    6.3946   45.8461 C   0  0  2  0  0  0  0  0  0  0  0  0
    3.3346    6.6856   44.4919 N   0  0  0  0  0  0  0  0  0  0  0  0
    3.4295    5.7611   43.2675 C   0  0  0  0  0  0  0  0  0  0  0  0
    3.1904    4.6258   43.1574 O   0  0  0  0  0  0  0  0  0  0  0  0
    4.0087    6.5191   42.1531 C   0  0  0  0  0  0  0  0  0  0  0  0
    4.6541    5.9176   41.0251 C   0  0  0  0  0  0  0  0  0  0  0  0
    5.1554    6.8978   40.2187 C   0  0  0  0  0  0  0  0  0  0  0  0
    6.0593    6.6100   38.6110 Br  0  0  0  0  0  0  0  0  0  0  0  0
    4.8437    8.4213   40.8677 S   0  0  0  0  0  0  0  0  0  0  0  0
    4.0905    7.8565   42.2261 N   0  0  0  0  0  0  0  0  0  0  0  0
    3.5098    5.0429   46.2724 C   0  0  0  0  0  0  0  0  0  0  0  0
    2.9014    3.7604   45.7908 C   0  0  0  0  0  0  0  0  0  0  0  0
    2.7712    4.1141   47.2329 C   0  0  0  0  0  0  0  0  0  0  0  0
  1  2  3  0
  3  2  1  6
  3  4  1  0
  4  5  1  0
  5  6  2  0
  5  7  1  0
  7  8  1  0
  8  9  2  0
  9 10  1  0
  9 11  1  0
 11 12  1  0
  3 13  1  0
 13 14  1  0
 14 15  1  0
 12  7  2  0
 15 13  1  0
M  END
>  <inchikey>  (1850) 
TZZIUDUILXHMMP-UHFFFAOYSA-N

>  <tags>  (1850) 
fragmenstein_placed,CpKRS_FrAncestor_bulkdock_iter2

>  <ref_pdb>  (1850) 
x0421a

>  <energy_score>  (1850) 
-17.213486

>  <distance_score>  (1850) 
0.922751

>  <HIPPO Pose ID>  (1850) 
62436

>  <ref_mols>  (1850) 
x0456a

>  <smiles>  (1850) 
C#CC(NC(=O)c1cc(Br)sn1)C1CC1

>  <HIPPO Compound ID>  (1850) 
30630

>  <alias>  (1850) 
TZZIUDUILXHMMP-UHFFFAOYSA-N-P20

>  <subsites>  (1850) 


>  <placement_batch>  (1850) 
CpKRS_FrAncestor_bulkdock_iter2

>  <name>  (1850) 
TZZIUDUILXHMMP-UHFFFAOYSA-N-P20

$$$$
IQDCIMGWDVVFBU-ZSBIGDGJSA-N-P11
     RDKit          3D

 19 21  0  0  0  0  0  0  0  0999 V2000
   -1.3670  -12.6604   26.4158 C   0  0  0  0  0  0  0  0  0  0  0  0
   -0.5141  -13.5483   26.8297 C   0  0  0  0  0  0  0  0  0  0  0  0
    0.3549  -14.4187   27.2529 C   0  0  0  0  0  0  0  0  0  0  0  0
    1.6621  -14.4417   26.7844 N   0  0  0  0  0  0  0  0  0  0  0  0
    2.6323  -15.3019   27.2658 C   0  0  0  0  0  0  0  0  0  0  0  0
    3.8044  -15.0075   26.6211 C   0  0  0  0  0  0  0  0  0  0  0  0
    3.4668  -13.9828   25.7176 C   0  0  0  0  0  0  0  0  0  0  0  0
    4.3423  -13.3042   24.7502 C   0  0  0  0  0  0  0  0  0  0  0  0
    5.4966  -13.4639   24.7334 O   0  0  0  0  0  0  0  0  0  0  0  0
    3.4554  -12.3532   23.9296 N   0  0  0  0  0  0  0  0  0  0  0  0
    3.7870  -11.4677   22.8516 C   0  0  1  0  0  0  0  0  0  0  0  0
    3.1281  -10.0940   23.0855 C   0  0  0  0  0  0  0  0  0  0  0  0
    4.1015   -9.0840   22.5728 C   0  0  2  0  0  0  0  0  0  0  0  0
    5.4140   -9.7464   22.3336 C   0  0  2  0  0  0  0  0  0  0  0  0
    5.2888  -11.2029   22.6594 C   0  0  0  0  0  0  0  0  0  0  0  0
    5.2906   -8.6707   23.4036 C   0  0  0  0  0  0  0  0  0  0  0  0
    5.8935   -7.3390   23.1332 C   0  0  0  0  0  0  0  0  0  0  0  0
    5.3950   -9.0495   24.8550 C   0  0  0  0  0  0  0  0  0  0  0  0
    2.1714  -13.6284   25.8296 N   0  0  0  0  0  0  0  0  0  0  0  0
  1  2  2  0
  2  3  2  0
  3  4  1  0
  4  5  1  0
  5  6  2  0
  6  7  1  0
  7  8  1  0
  8  9  2  0
  8 10  1  0
 11 10  1  1
 11 12  1  0
 13 12  1  1
 13 14  1  0
 14 15  1  1
 14 16  1  0
 16 17  1  0
 16 18  1  0
  7 19  2  0
 19  4  1  0
 15 11  1  0
 16 13  1  0
M  END
>  <inchikey>  (1851) 
IQDCIMGWDVVFBU-UHFFFAOYSA-N

>  <tags>  (1851) 
fragmenstein_placed,CpKRS_FrAncestor_bulkdock_iter2

>  <ref_pdb>  (1851) 
x0421a

>  <energy_score>  (1851) 
-15.980173

>  <distance_score>  (1851) 
0.853651

>  <HIPPO Pose ID>  (1851) 
62453

>  <ref_mols>  (1851) 
x0421a

>  <smiles>  (1851) 
C=C=Cn1ccc(C(=O)N[C@H]2C[C@@H]3[C@H](C2)C3(C)C)n1

>  <HIPPO Compound ID>  (1851) 
30632

>  <alias>  (1851) 
IQDCIMGWDVVFBU-ZSBIGDGJSA-N-P11

>  <subsites>  (1851) 


>  <placement_batch>  (1851) 
CpKRS_FrAncestor_bulkdock_iter2

>  <name>  (1851) 
IQDCIMGWDVVFBU-ZSBIGDGJSA-N-P11

$$$$
HZDOCZDTZUIFPM-IAZYJMLFSA-N-P13
     RDKit          3D

 17 19  0  0  0  0  0  0  0  0999 V2000
   -1.3905  -14.4230   24.8782 C   0  0  0  0  0  0  0  0  0  0  0  0
   -0.5879  -14.3292   25.7673 C   0  0  0  0  0  0  0  0  0  0  0  0
    0.3872  -14.1617   26.8534 C   0  0  0  0  0  0  0  0  0  0  0  0
    1.7593  -14.4471   26.4625 N   0  0  0  0  0  0  0  0  0  0  0  0
    2.5270  -15.4804   26.9122 C   0  0  0  0  0  0  0  0  0  0  0  0
    3.7744  -15.2878   26.3745 C   0  0  0  0  0  0  0  0  0  0  0  0
    3.6783  -14.0941   25.6198 C   0  0  0  0  0  0  0  0  0  0  0  0
    4.7668  -13.4250   24.8815 C   0  0  0  0  0  0  0  0  0  0  0  0
    5.8309  -13.8939   24.7994 O   0  0  0  0  0  0  0  0  0  0  0  0
    4.2079  -12.1115   24.3047 N   0  0  0  0  0  0  0  0  0  0  0  0
    4.8505  -11.0747   23.6010 C   0  0  1  0  0  0  0  0  0  0  0  0
    4.0408  -10.1088   22.7849 C   0  0  2  0  0  0  0  0  0  0  0  0
    4.6305   -9.3273   21.6580 C   0  0  0  0  0  0  0  0  0  0  0  0
    5.8975   -8.6942   22.2152 C   0  0  0  0  0  0  0  0  0  0  0  0
    5.6738   -8.5781   23.7231 C   0  0  0  0  0  0  0  0  0  0  0  0
    4.6743   -9.6447   24.0514 C   0  0  2  0  0  0  0  0  0  0  0  0
    2.4251  -13.5868   25.6662 N   0  0  0  0  0  0  0  0  0  0  0  0
  1  2  3  0
  2  3  1  0
  3  4  1  0
  4  5  1  0
  5  6  2  0
  6  7  1  0
  7  8  1  0
  8  9  2  0
  8 10  1  0
 11 10  1  1
 11 12  1  0
 12 13  1  6
 13 14  1  0
 14 15  1  0
 16 15  1  6
  7 17  2  0
 17  4  1  0
 16 11  1  0
 16 12  1  0
M  END
>  <inchikey>  (1852) 
HZDOCZDTZUIFPM-UHFFFAOYSA-N

>  <tags>  (1852) 
fragmenstein_placed,CpKRS_FrAncestor_bulkdock_iter2

>  <ref_pdb>  (1852) 
x0421a

>  <energy_score>  (1852) 
-14.163177

>  <distance_score>  (1852) 
0.651969

>  <HIPPO Pose ID>  (1852) 
62463

>  <ref_mols>  (1852) 
x0421c

>  <smiles>  (1852) 
C#CCn1ccc(C(=O)N[C@H]2[C@@H]3CCC[C@@H]32)n1

>  <HIPPO Compound ID>  (1852) 
30634

>  <alias>  (1852) 
HZDOCZDTZUIFPM-IAZYJMLFSA-N-P13

>  <subsites>  (1852) 


>  <placement_batch>  (1852) 
CpKRS_FrAncestor_bulkdock_iter2

>  <name>  (1852) 
HZDOCZDTZUIFPM-IAZYJMLFSA-N-P13

$$$$
CGIODTQAGHIAQM-IAZYJMLFSA-N-P11
     RDKit          3D

 17 19  0  0  0  0  0  0  0  0999 V2000
   -1.4687  -12.6078   26.3352 C   0  0  0  0  0  0  0  0  0  0  0  0
   -0.5937  -13.5066   26.6716 C   0  0  0  0  0  0  0  0  0  0  0  0
    0.2960  -14.3936   27.0072 C   0  0  0  0  0  0  0  0  0  0  0  0
    1.6199  -14.3152   26.5851 N   0  0  0  0  0  0  0  0  0  0  0  0
    2.5955  -15.2118   26.9805 C   0  0  0  0  0  0  0  0  0  0  0  0
    3.7735  -14.8258   26.3993 C   0  0  0  0  0  0  0  0  0  0  0  0
    3.4443  -13.6908   25.6322 C   0  0  0  0  0  0  0  0  0  0  0  0
    4.3575  -12.8747   24.8115 C   0  0  0  0  0  0  0  0  0  0  0  0
    5.4900  -13.1385   24.7023 O   0  0  0  0  0  0  0  0  0  0  0  0
    3.5564  -11.6614   24.2865 N   0  0  0  0  0  0  0  0  0  0  0  0
    3.9525  -10.5913   23.4557 C   0  0  1  0  0  0  0  0  0  0  0  0
    5.2283   -9.8541   23.7779 C   0  0  2  0  0  0  0  0  0  0  0  0
    5.4498   -8.4250   23.3898 C   0  0  0  0  0  0  0  0  0  0  0  0
    5.0505   -8.3562   21.9160 C   0  0  0  0  0  0  0  0  0  0  0  0
    5.3623   -9.7524   21.3817 C   0  0  0  0  0  0  0  0  0  0  0  0
    5.1426  -10.6785   22.5362 C   0  0  2  0  0  0  0  0  0  0  0  0
    2.1445  -13.3601   25.7720 N   0  0  0  0  0  0  0  0  0  0  0  0
  1  2  2  0
  2  3  2  0
  3  4  1  0
  4  5  1  0
  5  6  2  0
  6  7  1  0
  7  8  1  0
  8  9  2  0
  8 10  1  0
 11 10  1  1
 11 12  1  0
 12 13  1  6
 13 14  1  0
 14 15  1  0
 16 15  1  6
  7 17  2  0
 17  4  1  0
 16 11  1  0
 16 12  1  0
M  END
>  <inchikey>  (1853) 
CGIODTQAGHIAQM-UHFFFAOYSA-N

>  <tags>  (1853) 
fragmenstein_placed,CpKRS_FrAncestor_bulkdock_iter2

>  <ref_pdb>  (1853) 
x0421a

>  <energy_score>  (1853) 
-21.555051

>  <distance_score>  (1853) 
0.53452

>  <HIPPO Pose ID>  (1853) 
62465

>  <ref_mols>  (1853) 
x0421a

>  <smiles>  (1853) 
C=C=Cn1ccc(C(=O)N[C@H]2[C@@H]3CCC[C@@H]32)n1

>  <HIPPO Compound ID>  (1853) 
30635

>  <alias>  (1853) 
CGIODTQAGHIAQM-IAZYJMLFSA-N-P11

>  <subsites>  (1853) 


>  <placement_batch>  (1853) 
CpKRS_FrAncestor_bulkdock_iter2

>  <name>  (1853) 
CGIODTQAGHIAQM-IAZYJMLFSA-N-P11

$$$$
RDGXPHAMHIPPKT-IAZYJMLFSA-N-P12
     RDKit          3D

 17 19  0  0  0  0  0  0  0  0999 V2000
   -0.5204  -13.7168   24.6299 C   0  0  0  0  0  0  0  0  0  0  0  0
   -0.0185  -14.0887   26.0284 C   0  0  0  0  0  0  0  0  0  0  0  0
   -0.6480  -13.1993   27.0851 C   0  0  0  0  0  0  0  0  0  0  0  0
    1.4350  -14.1452   26.1292 N   0  0  0  0  0  0  0  0  0  0  0  0
    2.1587  -15.0101   26.9013 C   0  0  0  0  0  0  0  0  0  0  0  0
    3.4742  -14.8402   26.5489 C   0  0  0  0  0  0  0  0  0  0  0  0
    3.4635  -13.8101   25.5840 C   0  0  0  0  0  0  0  0  0  0  0  0
    4.6180  -13.1756   24.9255 C   0  0  0  0  0  0  0  0  0  0  0  0
    5.7000  -13.6064   24.9817 O   0  0  0  0  0  0  0  0  0  0  0  0
    4.0919  -11.8816   24.2805 N   0  0  0  0  0  0  0  0  0  0  0  0
    4.7531  -10.9132   23.5048 C   0  0  1  0  0  0  0  0  0  0  0  0
    3.9383   -9.9166   22.7329 C   0  0  2  0  0  0  0  0  0  0  0  0
    4.4862   -9.2040   21.5463 C   0  0  0  0  0  0  0  0  0  0  0  0
    5.8114   -8.6063   21.9961 C   0  0  0  0  0  0  0  0  0  0  0  0
    5.7181   -8.4636   23.5148 C   0  0  0  0  0  0  0  0  0  0  0  0
    4.6916   -9.4671   23.9375 C   0  0  2  0  0  0  0  0  0  0  0  0
    2.2048  -13.3867   25.3301 N   0  0  0  0  0  0  0  0  0  0  0  0
  1  2  1  0
  2  3  1  0
  2  4  1  0
  4  5  1  0
  5  6  2  0
  6  7  1  0
  7  8  1  0
  8  9  2  0
  8 10  1  0
 11 10  1  1
 11 12  1  0
 12 13  1  6
 13 14  1  0
 14 15  1  0
 16 15  1  6
  7 17  2  0
 17  4  1  0
 16 11  1  0
 16 12  1  0
M  END
>  <inchikey>  (1854) 
RDGXPHAMHIPPKT-UHFFFAOYSA-N

>  <tags>  (1854) 
fragmenstein_placed,CpKRS_FrAncestor_bulkdock_iter2

>  <ref_pdb>  (1854) 
x0421a

>  <energy_score>  (1854) 
-30.82786

>  <distance_score>  (1854) 
0.581909

>  <HIPPO Pose ID>  (1854) 
62470

>  <ref_mols>  (1854) 
x0421b

>  <smiles>  (1854) 
CC(C)n1ccc(C(=O)N[C@H]2[C@@H]3CCC[C@@H]32)n1

>  <HIPPO Compound ID>  (1854) 
30636

>  <alias>  (1854) 
RDGXPHAMHIPPKT-IAZYJMLFSA-N-P12

>  <subsites>  (1854) 


>  <placement_batch>  (1854) 
CpKRS_FrAncestor_bulkdock_iter2

>  <name>  (1854) 
RDGXPHAMHIPPKT-IAZYJMLFSA-N-P12

$$$$
RIMNKYOZIPIVGH-SCZZXKLOSA-N-P20
     RDKit          3D

 15 16  0  0  0  0  0  0  0  0999 V2000
    5.0713    9.4772   40.7711 C   0  0  0  0  0  0  0  0  0  0  0  0
    5.2655    8.2327   39.9095 C   0  0  0  0  0  0  0  0  0  0  0  0
    4.3361    8.2835   38.6947 C   0  0  0  0  0  0  0  0  0  0  0  0
    5.0843    6.9838   40.6333 N   0  0  0  0  0  0  0  0  0  0  0  0
    5.5865    5.7735   40.2523 C   0  0  0  0  0  0  0  0  0  0  0  0
    5.0484    4.8583   41.1181 C   0  0  0  0  0  0  0  0  0  0  0  0
    4.2546    5.6093   42.0252 C   0  0  0  0  0  0  0  0  0  0  0  0
    3.5078    5.0671   43.1761 C   0  0  0  0  0  0  0  0  0  0  0  0
    3.2164    3.9361   43.2154 O   0  0  0  0  0  0  0  0  0  0  0  0
    3.3291    6.1867   44.2309 N   0  0  0  0  0  0  0  0  0  0  0  0
    2.6808    6.1690   45.4931 C   0  0  1  0  0  0  0  0  0  0  0  0
    1.4582    5.3514   45.7698 C   0  0  0  0  0  0  0  0  0  0  0  0
    2.7401    5.0136   46.4672 C   0  0  1  0  0  0  0  0  0  0  0  0
    3.4238    3.7250   46.1934 C   0  0  0  0  0  0  0  0  0  0  0  0
    4.3473    6.9319   41.7706 N   0  0  0  0  0  0  0  0  0  0  0  0
  1  2  1  0
  2  3  1  0
  2  4  1  0
  4  5  1  0
  5  6  2  0
  6  7  1  0
  7  8  1  0
  8  9  2  0
  8 10  1  0
 11 10  1  6
 11 12  1  0
 12 13  1  0
 13 14  1  6
  7 15  2  0
 15  4  1  0
 13 11  1  0
M  END
>  <inchikey>  (1855) 
RIMNKYOZIPIVGH-UHFFFAOYSA-N

>  <tags>  (1855) 
fragmenstein_placed,CpKRS_FrAncestor_bulkdock_iter2

>  <ref_pdb>  (1855) 
x0421a

>  <energy_score>  (1855) 
-5.208984

>  <distance_score>  (1855) 
0.810272

>  <HIPPO Pose ID>  (1855) 
62473

>  <ref_mols>  (1855) 
x0456a

>  <smiles>  (1855) 
CC(C)n1ccc(C(=O)N[C@H]2C[C@H]2C)n1

>  <HIPPO Compound ID>  (1855) 
30637

>  <alias>  (1855) 
RIMNKYOZIPIVGH-SCZZXKLOSA-N-P20

>  <subsites>  (1855) 


>  <placement_batch>  (1855) 
CpKRS_FrAncestor_bulkdock_iter2

>  <name>  (1855) 
RIMNKYOZIPIVGH-SCZZXKLOSA-N-P20

$$$$
WQGCYRNRERDYRU-UHFFFAOYSA-N-P13
     RDKit          3D

 19 22  0  0  0  0  0  0  0  0999 V2000
   -0.9685  -14.3851   25.4159 C   0  0  0  0  0  0  0  0  0  0  0  0
   -0.0259  -13.2959   25.9133 C   0  0  0  0  0  0  0  0  0  0  0  0
   -0.2819  -12.0104   25.1126 C   0  0  0  0  0  0  0  0  0  0  0  0
    1.3648  -13.7434   25.8855 N   0  0  0  0  0  0  0  0  0  0  0  0
    1.9095  -14.7627   26.6112 C   0  0  0  0  0  0  0  0  0  0  0  0
    3.2451  -14.7903   26.2870 C   0  0  0  0  0  0  0  0  0  0  0  0
    4.4213  -15.8312   26.9092 Cl  0  0  0  0  0  0  0  0  0  0  0  0
    3.4361  -13.7187   25.3864 C   0  0  0  0  0  0  0  0  0  0  0  0
    4.7002  -13.1976   24.8284 C   0  0  0  0  0  0  0  0  0  0  0  0
    5.6951  -13.8002   24.8546 O   0  0  0  0  0  0  0  0  0  0  0  0
    4.4170  -11.7660   24.3570 N   0  0  0  0  0  0  0  0  0  0  0  0
    5.3021  -10.7496   23.9109 C   0  0  2  0  0  0  0  0  0  0  0  0
    4.6637   -9.3240   23.8701 C   0  0  2  0  0  0  0  0  0  0  0  0
    3.6562   -9.4476   22.6810 C   0  0  0  0  0  0  0  0  0  0  0  0
    4.6469   -9.9896   21.6904 C   0  0  1  0  0  0  0  0  0  0  0  0
    5.9783   -9.4294   22.0234 C   0  0  1  0  0  0  0  0  0  0  0  0
    5.8171   -8.5103   23.2111 C   0  0  0  0  0  0  0  0  0  0  0  0
    5.6161  -10.8217   22.4428 C   0  0  1  0  0  0  0  0  0  0  0  0
    2.2636  -13.0926   25.1310 N   0  0  0  0  0  0  0  0  0  0  0  0
  1  2  1  0
  2  3  1  0
  2  4  1  0
  4  5  1  0
  5  6  2  0
  6  7  1  0
  6  8  1  0
  8  9  1  0
  9 10  2  0
  9 11  1  0
 12 11  1  6
 12 13  1  0
 13 14  1  6
 15 14  1  1
 15 16  1  0
 16 17  1  1
 16 18  1  0
  8 19  2  0
 19  4  1  0
 18 12  1  1
 17 13  1  0
 18 15  1  0
M  END
>  <inchikey>  (1856) 
WQGCYRNRERDYRU-UHFFFAOYSA-N

>  <tags>  (1856) 
fragmenstein_placed,CpKRS_FrAncestor_bulkdock_iter2

>  <ref_pdb>  (1856) 
x0421a

>  <energy_score>  (1856) 
-17.921706

>  <distance_score>  (1856) 
0.471466

>  <HIPPO Pose ID>  (1856) 
62478

>  <ref_mols>  (1856) 
x0421c

>  <smiles>  (1856) 
CC(C)n1cc(Cl)c(C(=O)NC2C3CC4C(C3)C42)n1

>  <HIPPO Compound ID>  (1856) 
30638

>  <alias>  (1856) 
WQGCYRNRERDYRU-UHFFFAOYSA-N-P13

>  <subsites>  (1856) 


>  <placement_batch>  (1856) 
CpKRS_FrAncestor_bulkdock_iter2

>  <name>  (1856) 
WQGCYRNRERDYRU-UHFFFAOYSA-N-P13

$$$$
SSGGQFPPRMDXKY-UHFFFAOYSA-N-P11
     RDKit          3D

 18 20  0  0  0  0  0  0  0  0999 V2000
   -0.7727  -15.0322   25.3317 C   0  0  0  0  0  0  0  0  0  0  0  0
   -0.1027  -14.4589   26.5777 C   0  0  0  0  0  0  0  0  0  0  0  0
   -0.6602  -13.0681   26.8839 C   0  0  0  0  0  0  0  0  0  0  0  0
    1.3448  -14.4526   26.4589 N   0  0  0  0  0  0  0  0  0  0  0  0
    2.2386  -15.2639   27.0834 C   0  0  0  0  0  0  0  0  0  0  0  0
    3.4742  -14.9027   26.5950 C   0  0  0  0  0  0  0  0  0  0  0  0
    4.9637  -15.5934   26.9977 Cl  0  0  0  0  0  0  0  0  0  0  0  0
    3.2233  -13.8556   25.6810 C   0  0  0  0  0  0  0  0  0  0  0  0
    4.1362  -13.0822   24.8238 C   0  0  0  0  0  0  0  0  0  0  0  0
    5.2998  -13.1664   24.8574 O   0  0  0  0  0  0  0  0  0  0  0  0
    3.2238  -12.1511   23.9964 N   0  0  0  0  0  0  0  0  0  0  0  0
    3.5523  -11.0679   23.1110 C   0  0  0  0  0  0  0  0  0  0  0  0
    4.2667   -9.8747   23.7782 C   0  0  0  0  0  0  0  0  0  0  0  0
    4.9603   -9.7815   22.4763 C   0  0  0  0  0  0  0  0  0  0  0  0
    4.7895   -8.6935   21.4727 C   0  0  0  0  0  0  0  0  0  0  0  0
    6.1150   -8.9329   22.1298 C   0  0  0  0  0  0  0  0  0  0  0  0
    4.7932  -11.2323   22.2186 C   0  0  0  0  0  0  0  0  0  0  0  0
    1.9029  -13.5504   25.6524 N   0  0  0  0  0  0  0  0  0  0  0  0
  1  2  1  0
  2  3  1  0
  2  4  1  0
  4  5  1  0
  5  6  2  0
  6  7  1  0
  6  8  1  0
  8  9  1  0
  9 10  2  0
  9 11  1  0
 11 12  1  0
 12 13  1  0
 13 14  1  0
 14 15  1  0
 15 16  1  0
 14 17  1  0
  8 18  2  0
 18  4  1  0
 17 12  1  0
 16 14  1  0
M  END
>  <inchikey>  (1857) 
SSGGQFPPRMDXKY-UHFFFAOYSA-N

>  <tags>  (1857) 
fragmenstein_placed,CpKRS_FrAncestor_bulkdock_iter2

>  <ref_pdb>  (1857) 
x0421a

>  <energy_score>  (1857) 
-25.738676

>  <distance_score>  (1857) 
0.646671

>  <HIPPO Pose ID>  (1857) 
62484

>  <ref_mols>  (1857) 
x0421a

>  <smiles>  (1857) 
CC(C)n1cc(Cl)c(C(=O)NC2CC3(CC3)C2)n1

>  <HIPPO Compound ID>  (1857) 
30640

>  <alias>  (1857) 
SSGGQFPPRMDXKY-UHFFFAOYSA-N-P11

>  <subsites>  (1857) 


>  <placement_batch>  (1857) 
CpKRS_FrAncestor_bulkdock_iter2

>  <name>  (1857) 
SSGGQFPPRMDXKY-UHFFFAOYSA-N-P11

$$$$
PPCMILIENOOKRV-SNVBAGLBSA-N-P12
     RDKit          3D

 18 19  0  0  0  0  0  0  0  0999 V2000
   -0.5217  -14.5632   24.5000 C   0  0  0  0  0  0  0  0  0  0  0  0
   -0.1495  -14.0266   25.8853 C   0  0  0  0  0  0  0  0  0  0  0  0
   -0.8352  -12.6938   26.1378 C   0  0  0  0  0  0  0  0  0  0  0  0
    1.3012  -13.9981   26.0476 N   0  0  0  0  0  0  0  0  0  0  0  0
    2.0256  -14.8792   26.7949 C   0  0  0  0  0  0  0  0  0  0  0  0
    3.3331  -14.7222   26.4176 C   0  0  0  0  0  0  0  0  0  0  0  0
    4.6515  -15.6233   26.9761 Cl  0  0  0  0  0  0  0  0  0  0  0  0
    3.3290  -13.6537   25.4907 C   0  0  0  0  0  0  0  0  0  0  0  0
    4.4932  -13.0351   24.8245 C   0  0  0  0  0  0  0  0  0  0  0  0
    5.5317  -13.5596   24.7937 O   0  0  0  0  0  0  0  0  0  0  0  0
    4.0653  -11.6454   24.3324 N   0  0  0  0  0  0  0  0  0  0  0  0
    4.8016  -10.6416   23.6120 C   0  0  2  0  0  0  0  0  0  0  0  0
    4.7607   -9.2779   24.3207 C   0  0  0  0  0  0  0  0  0  0  0  0
    5.2091   -8.1391   23.4531 C   0  0  0  0  0  0  0  0  0  0  0  0
    5.3617   -8.2523   22.1283 C   0  0  0  0  0  0  0  0  0  0  0  0
    5.1135   -9.5305   21.3913 C   0  0  0  0  0  0  0  0  0  0  0  0
    4.2903  -10.5405   22.1812 C   0  0  0  0  0  0  0  0  0  0  0  0
    2.0686  -13.1994   25.2749 N   0  0  0  0  0  0  0  0  0  0  0  0
  1  2  1  0
  2  3  1  0
  2  4  1  0
  4  5  1  0
  5  6  2  0
  6  7  1  0
  6  8  1  0
  8  9  1  0
  9 10  2  0
  9 11  1  0
 12 11  1  1
 12 13  1  0
 13 14  1  0
 14 15  2  0
 15 16  1  0
 16 17  1  0
  8 18  2  0
 18  4  1  0
 17 12  1  0
M  END
>  <inchikey>  (1858) 
PPCMILIENOOKRV-UHFFFAOYSA-N

>  <tags>  (1858) 
fragmenstein_placed,CpKRS_FrAncestor_bulkdock_iter2

>  <ref_pdb>  (1858) 
x0421a

>  <energy_score>  (1858) 
-21.038833

>  <distance_score>  (1858) 
0.426838

>  <HIPPO Pose ID>  (1858) 
62497

>  <ref_mols>  (1858) 
x0421b

>  <smiles>  (1858) 
CC(C)n1cc(Cl)c(C(=O)N[C@@H]2CC=CCC2)n1

>  <HIPPO Compound ID>  (1858) 
30642

>  <alias>  (1858) 
PPCMILIENOOKRV-SNVBAGLBSA-N-P12

>  <subsites>  (1858) 


>  <placement_batch>  (1858) 
CpKRS_FrAncestor_bulkdock_iter2

>  <name>  (1858) 
PPCMILIENOOKRV-SNVBAGLBSA-N-P12

$$$$
FLSIQWZXYYHCGQ-NGZCFLSTSA-N-P13
     RDKit          3D

 18 20  0  0  0  0  0  0  0  0999 V2000
   -0.3274  -14.6651   24.1778 C   0  0  0  0  0  0  0  0  0  0  0  0
   -0.0822  -14.1314   25.5918 C   0  0  0  0  0  0  0  0  0  0  0  0
   -0.7769  -12.7916   25.7919 C   0  0  0  0  0  0  0  0  0  0  0  0
    1.3460  -14.0994   25.8880 N   0  0  0  0  0  0  0  0  0  0  0  0
    1.9991  -14.9580   26.7186 C   0  0  0  0  0  0  0  0  0  0  0  0
    3.3307  -14.8257   26.4196 C   0  0  0  0  0  0  0  0  0  0  0  0
    4.5991  -15.7301   27.0685 Cl  0  0  0  0  0  0  0  0  0  0  0  0
    3.4087  -13.7877   25.4609 C   0  0  0  0  0  0  0  0  0  0  0  0
    4.6301  -13.2484   24.8208 C   0  0  0  0  0  0  0  0  0  0  0  0
    5.6435  -13.8169   24.8781 O   0  0  0  0  0  0  0  0  0  0  0  0
    4.2817  -11.9016   24.1792 N   0  0  0  0  0  0  0  0  0  0  0  0
    5.1168  -10.9284   23.5577 C   0  0  1  0  0  0  0  0  0  0  0  0
    4.7609  -10.6920   22.0896 C   0  0  0  0  0  0  0  0  0  0  0  0
    5.1253   -9.2248   21.8426 C   0  0  0  0  0  0  0  0  0  0  0  0
    4.9340   -8.5393   23.1677 C   0  0  1  0  0  0  0  0  0  0  0  0
    3.7310   -8.7648   24.0622 C   0  0  0  0  0  0  0  0  0  0  0  0
    4.9697   -9.5937   24.2215 C   0  0  1  0  0  0  0  0  0  0  0  0
    2.1728  -13.3050   25.1778 N   0  0  0  0  0  0  0  0  0  0  0  0
  1  2  1  0
  2  3  1  0
  2  4  1  0
  4  5  1  0
  5  6  2  0
  6  7  1  0
  6  8  1  0
  8  9  1  0
  9 10  2  0
  9 11  1  0
 12 11  1  1
 12 13  1  0
 13 14  1  0
 15 14  1  6
 15 16  1  0
 17 16  1  6
  8 18  2  0
 18  4  1  0
 17 12  1  0
 17 15  1  0
M  END
>  <inchikey>  (1859) 
FLSIQWZXYYHCGQ-UHFFFAOYSA-N

>  <tags>  (1859) 
fragmenstein_placed,CpKRS_FrAncestor_bulkdock_iter2

>  <ref_pdb>  (1859) 
x0421a

>  <energy_score>  (1859) 
-22.853676

>  <distance_score>  (1859) 
0.437216

>  <HIPPO Pose ID>  (1859) 
62506

>  <ref_mols>  (1859) 
x0421c

>  <smiles>  (1859) 
CC(C)n1cc(Cl)c(C(=O)N[C@H]2CC[C@H]3C[C@H]32)n1

>  <HIPPO Compound ID>  (1859) 
30641

>  <alias>  (1859) 
FLSIQWZXYYHCGQ-NGZCFLSTSA-N-P13

>  <subsites>  (1859) 


>  <placement_batch>  (1859) 
CpKRS_FrAncestor_bulkdock_iter2

>  <name>  (1859) 
FLSIQWZXYYHCGQ-NGZCFLSTSA-N-P13

$$$$
AJNMFRNGKHPIGG-ILWJIGKKSA-N-P12
     RDKit          3D

 18 20  0  0  0  0  0  0  0  0999 V2000
   -0.8146  -12.6963   26.1362 C   0  0  0  0  0  0  0  0  0  0  0  0
   -0.1324  -14.0367   25.9193 C   0  0  0  0  0  0  0  0  0  0  0  0
   -0.4817  -14.5925   24.5351 C   0  0  0  0  0  0  0  0  0  0  0  0
    1.3152  -14.0123   26.1100 N   0  0  0  0  0  0  0  0  0  0  0  0
    2.0180  -14.8535   26.9215 C   0  0  0  0  0  0  0  0  0  0  0  0
    3.3298  -14.7507   26.5384 C   0  0  0  0  0  0  0  0  0  0  0  0
    4.6261  -15.6523   27.1392 Cl  0  0  0  0  0  0  0  0  0  0  0  0
    3.3555  -13.7384   25.5539 C   0  0  0  0  0  0  0  0  0  0  0  0
    4.5324  -13.1810   24.8540 C   0  0  0  0  0  0  0  0  0  0  0  0
    5.5804  -13.6838   24.8982 O   0  0  0  0  0  0  0  0  0  0  0  0
    4.0840  -11.8766   24.1877 N   0  0  0  0  0  0  0  0  0  0  0  0
    4.8049  -10.9611   23.3556 C   0  0  1  0  0  0  0  0  0  0  0  0
    3.9365  -10.4604   22.1995 C   0  0  0  0  0  0  0  0  0  0  0  0
    4.3351   -9.0369   21.9774 C   0  0  2  0  0  0  0  0  0  0  0  0
    5.7619   -8.6600   21.7417 C   0  0  0  0  0  0  0  0  0  0  0  0
    5.1714   -8.5769   23.1216 C   0  0  2  0  0  0  0  0  0  0  0  0
    5.2706   -9.6999   24.1090 C   0  0  0  0  0  0  0  0  0  0  0  0
    2.1044  -13.2753   25.2999 N   0  0  0  0  0  0  0  0  0  0  0  0
  1  2  1  0
  2  3  1  0
  2  4  1  0
  4  5  1  0
  5  6  2  0
  6  7  1  0
  6  8  1  0
  8  9  1  0
  9 10  2  0
  9 11  1  0
 12 11  1  1
 12 13  1  0
 14 13  1  1
 14 15  1  0
 16 15  1  6
 16 17  1  0
  8 18  2  0
 18  4  1  0
 17 12  1  0
 16 14  1  0
M  END
>  <inchikey>  (1860) 
AJNMFRNGKHPIGG-UHFFFAOYSA-N

>  <tags>  (1860) 
fragmenstein_placed,CpKRS_FrAncestor_bulkdock_iter2

>  <ref_pdb>  (1860) 
x0421a

>  <energy_score>  (1860) 
-20.737913

>  <distance_score>  (1860) 
0.520991

>  <HIPPO Pose ID>  (1860) 
62509

>  <ref_mols>  (1860) 
x0421b

>  <smiles>  (1860) 
CC(C)n1cc(Cl)c(C(=O)N[C@H]2C[C@@H]3C[C@@H]3C2)n1

>  <HIPPO Compound ID>  (1860) 
30639

>  <alias>  (1860) 
AJNMFRNGKHPIGG-ILWJIGKKSA-N-P12

>  <subsites>  (1860) 


>  <placement_batch>  (1860) 
CpKRS_FrAncestor_bulkdock_iter2

>  <name>  (1860) 
AJNMFRNGKHPIGG-ILWJIGKKSA-N-P12

$$$$
XPYRPNPVRBTIEN-UHFFFAOYSA-N-P38
     RDKit          3D

 20 21  0  0  0  0  0  0  0  0999 V2000
    7.0453   -9.1989   24.9215 C   0  0  0  0  0  0  0  0  0  0  0  0
    6.1823   -9.8580   24.4257 C   0  0  0  0  0  0  0  0  0  0  0  0
    5.2490  -10.4849   23.5108 C   0  0  1  0  0  0  0  0  0  0  0  0
    4.4095  -11.4035   24.2186 N   0  0  0  0  0  0  0  0  0  0  0  0
    4.6629  -12.8534   24.6546 C   0  0  0  0  0  0  0  0  0  0  0  0
    5.6213  -13.5075   24.5761 O   0  0  0  0  0  0  0  0  0  0  0  0
    3.4854  -13.4317   25.3739 C   0  0  0  0  0  0  0  0  0  0  0  0
    3.6984  -14.4844   26.2785 C   0  0  0  0  0  0  0  0  0  0  0  0
    2.6423  -15.0038   27.0389 C   0  0  0  0  0  0  0  0  0  0  0  0
    1.3507  -14.5027   26.8804 C   0  0  0  0  0  0  0  0  0  0  0  0
    1.1270  -13.5253   25.9273 C   0  0  0  0  0  0  0  0  0  0  0  0
    2.1854  -12.9801   25.2147 C   0  0  0  0  0  0  0  0  0  0  0  0
    1.7919  -11.9579   24.3818 O   0  0  0  0  0  0  0  0  0  0  0  0
    0.3649  -12.1333   24.2626 C   0  0  0  0  0  0  0  0  0  0  0  0
   -0.1276  -12.8414   25.5233 C   0  0  1  0  0  0  0  0  0  0  0  0
   -1.3238  -13.7356   25.2611 C   0  0  0  0  0  0  0  0  0  0  0  0
    4.5394   -9.3778   22.6746 C   0  0  0  0  0  0  0  0  0  0  0  0
    3.0406   -9.2722   22.9750 C   0  0  0  0  0  0  0  0  0  0  0  0
    5.1130   -7.9563   22.8743 C   0  0  0  0  0  0  0  0  0  0  0  0
    4.8137   -9.7320   21.2135 C   0  0  0  0  0  0  0  0  0  0  0  0
  1  2  3  0
  3  2  1  1
  3  4  1  0
  4  5  1  0
  5  6  2  0
  5  7  1  0
  7  8  2  0
  8  9  1  0
  9 10  2  0
 10 11  1  0
 11 12  2  0
 12 13  1  0
 13 14  1  0
 14 15  1  0
 15 16  1  6
  3 17  1  0
 17 18  1  0
 17 19  1  0
 17 20  1  0
 12  7  1  0
 15 11  1  0
M  END
>  <inchikey>  (1861) 
XPYRPNPVRBTIEN-UHFFFAOYSA-N

>  <tags>  (1861) 
fragmenstein_placed,CpKRS_FrAncestor_bulkdock_iter2

>  <ref_pdb>  (1861) 
x0421a

>  <energy_score>  (1861) 
-7.725127

>  <distance_score>  (1861) 
0.661464

>  <HIPPO Pose ID>  (1861) 
62513

>  <ref_mols>  (1861) 
x0555a

>  <smiles>  (1861) 
C#CC(NC(=O)c1cccc2c1OCC2C)C(C)(C)C

>  <HIPPO Compound ID>  (1861) 
30556

>  <alias>  (1861) 
XPYRPNPVRBTIEN-UHFFFAOYSA-N-P38

>  <subsites>  (1861) 


>  <placement_batch>  (1861) 
CpKRS_FrAncestor_bulkdock_iter2

>  <name>  (1861) 
XPYRPNPVRBTIEN-UHFFFAOYSA-N-P38

$$$$
NXMWMQRWELAVCA-UHFFFAOYSA-N-P17
     RDKit          3D

 15 16  0  0  0  0  0  0  0  0999 V2000
    4.9679   -9.7176   22.3026 C   0  0  0  0  0  0  0  0  0  0  0  0
    4.8414  -10.9104   22.3671 C   0  0  0  0  0  0  0  0  0  0  0  0
    4.7278  -12.3712   22.3419 C   0  0  0  0  0  0  0  0  0  0  0  0
    3.9904  -12.8693   23.4558 N   0  0  0  0  0  0  0  0  0  0  0  0
    4.4711  -13.3968   24.8147 C   0  0  0  0  0  0  0  0  0  0  0  0
    5.5402  -13.4380   25.2722 O   0  0  0  0  0  0  0  0  0  0  0  0
    3.3298  -13.8343   25.6967 C   0  0  0  0  0  0  0  0  0  0  0  0
    2.0209  -13.3094   25.5891 C   0  0  0  0  0  0  0  0  0  0  0  0
    1.0046  -13.6773   26.4760 C   0  0  0  0  0  0  0  0  0  0  0  0
    1.2618  -14.5354   27.5418 C   0  0  0  0  0  0  0  0  0  0  0  0
    2.5597  -15.0097   27.6578 C   0  0  0  0  0  0  0  0  0  0  0  0
    2.9943  -15.7895   28.6817 O   0  0  0  0  0  0  0  0  0  0  0  0
    4.3029  -16.0242   28.4472 C   0  0  0  0  0  0  0  0  0  0  0  0
    4.7107  -15.4324   27.2770 C   0  0  0  0  0  0  0  0  0  0  0  0
    3.5901  -14.7186   26.7714 C   0  0  0  0  0  0  0  0  0  0  0  0
  1  2  3  0
  2  3  1  0
  3  4  1  0
  4  5  1  0
  5  6  2  0
  5  7  1  0
  7  8  2  0
  8  9  1  0
  9 10  2  0
 10 11  1  0
 11 12  1  0
 12 13  1  0
 13 14  2  0
 14 15  1  0
 15  7  1  0
 15 11  2  0
M  END
>  <inchikey>  (1862) 
NXMWMQRWELAVCA-UHFFFAOYSA-N

>  <tags>  (1862) 
fragmenstein_placed,CpKRS_FrAncestor_bulkdock_iter2

>  <ref_pdb>  (1862) 
x0421a

>  <energy_score>  (1862) 
-2.654206

>  <distance_score>  (1862) 
0.53896

>  <HIPPO Pose ID>  (1862) 
62515

>  <ref_mols>  (1862) 
x0434a

>  <smiles>  (1862) 
C#CCNC(=O)c1cccc2occc12

>  <HIPPO Compound ID>  (1862) 
30644

>  <alias>  (1862) 
NXMWMQRWELAVCA-UHFFFAOYSA-N-P17

>  <subsites>  (1862) 


>  <placement_batch>  (1862) 
CpKRS_FrAncestor_bulkdock_iter2

>  <name>  (1862) 
NXMWMQRWELAVCA-UHFFFAOYSA-N-P17

$$$$
FELUIZKWCBXBBI-UHFFFAOYSA-N-P17
     RDKit          3D

 15 16  0  0  0  0  0  0  0  0999 V2000
    4.9439   -9.5173   22.1479 C   0  0  0  0  0  0  0  0  0  0  0  0
    4.8811  -10.7156   22.1948 C   0  0  0  0  0  0  0  0  0  0  0  0
    4.8465  -12.1782   22.1682 C   0  0  0  0  0  0  0  0  0  0  0  0
    4.0710  -12.6951   23.2433 N   0  0  0  0  0  0  0  0  0  0  0  0
    4.4882  -13.1441   24.6408 C   0  0  0  0  0  0  0  0  0  0  0  0
    5.5196  -13.0945   25.1703 O   0  0  0  0  0  0  0  0  0  0  0  0
    3.3209  -13.6311   25.4531 C   0  0  0  0  0  0  0  0  0  0  0  0
    2.0249  -13.1059   25.2741 C   0  0  0  0  0  0  0  0  0  0  0  0
    0.9820  -13.4666   26.1175 C   0  0  0  0  0  0  0  0  0  0  0  0
    1.2173  -14.3048   27.2000 C   0  0  0  0  0  0  0  0  0  0  0  0
    2.5163  -14.7842   27.4173 C   0  0  0  0  0  0  0  0  0  0  0  0
    3.0326  -15.6810   28.7802 S   0  0  0  0  0  0  0  0  0  0  0  0
    4.5962  -15.8418   28.1675 C   0  0  0  0  0  0  0  0  0  0  0  0
    4.7546  -15.2062   26.9650 C   0  0  0  0  0  0  0  0  0  0  0  0
    3.5683  -14.5154   26.5395 C   0  0  0  0  0  0  0  0  0  0  0  0
  1  2  3  0
  2  3  1  0
  3  4  1  0
  4  5  1  0
  5  6  2  0
  5  7  1  0
  7  8  2  0
  8  9  1  0
  9 10  2  0
 10 11  1  0
 11 12  1  0
 12 13  1  0
 13 14  2  0
 14 15  1  0
 15  7  1  0
 15 11  2  0
M  END
>  <inchikey>  (1863) 
FELUIZKWCBXBBI-UHFFFAOYSA-N

>  <tags>  (1863) 
fragmenstein_placed,CpKRS_FrAncestor_bulkdock_iter2

>  <ref_pdb>  (1863) 
x0421a

>  <energy_score>  (1863) 
-13.141925

>  <distance_score>  (1863) 
0.687979

>  <HIPPO Pose ID>  (1863) 
62517

>  <ref_mols>  (1863) 
x0434a

>  <smiles>  (1863) 
C#CCNC(=O)c1cccc2sccc12

>  <HIPPO Compound ID>  (1863) 
30646

>  <alias>  (1863) 
FELUIZKWCBXBBI-UHFFFAOYSA-N-P17

>  <subsites>  (1863) 


>  <placement_batch>  (1863) 
CpKRS_FrAncestor_bulkdock_iter2

>  <name>  (1863) 
FELUIZKWCBXBBI-UHFFFAOYSA-N-P17

$$$$
IWYQWBYJIBQUPU-UHFFFAOYSA-N-P17
     RDKit          3D

 15 16  0  0  0  0  0  0  0  0999 V2000
    4.9128   -9.6470   21.7419 C   0  0  0  0  0  0  0  0  0  0  0  0
    5.1543  -10.6814   22.5568 C   0  0  0  0  0  0  0  0  0  0  0  0
    4.9167  -12.1209   22.2250 C   0  0  0  0  0  0  0  0  0  0  0  0
    4.1132  -12.6636   23.2661 N   0  0  0  0  0  0  0  0  0  0  0  0
    4.4985  -13.1731   24.6560 C   0  0  0  0  0  0  0  0  0  0  0  0
    5.5222  -13.1618   25.2050 O   0  0  0  0  0  0  0  0  0  0  0  0
    3.3166  -13.6731   25.4464 C   0  0  0  0  0  0  0  0  0  0  0  0
    2.0193  -13.1478   25.2664 C   0  0  0  0  0  0  0  0  0  0  0  0
    0.9744  -13.4983   26.1126 C   0  0  0  0  0  0  0  0  0  0  0  0
    1.2072  -14.3234   27.2040 C   0  0  0  0  0  0  0  0  0  0  0  0
    2.5047  -14.8024   27.4256 C   0  0  0  0  0  0  0  0  0  0  0  0
    3.0173  -15.6767   28.8041 S   0  0  0  0  0  0  0  0  0  0  0  0
    4.5788  -15.8568   28.1938 C   0  0  0  0  0  0  0  0  0  0  0  0
    4.7400  -15.2404   26.9818 C   0  0  0  0  0  0  0  0  0  0  0  0
    3.5572  -14.5494   26.5436 C   0  0  0  0  0  0  0  0  0  0  0  0
  1  2  2  0
  2  3  1  0
  3  4  1  0
  4  5  1  0
  5  6  2  0
  5  7  1  0
  7  8  2  0
  8  9  1  0
  9 10  2  0
 10 11  1  0
 11 12  1  0
 12 13  1  0
 13 14  2  0
 14 15  1  0
 15  7  1  0
 15 11  2  0
M  END
>  <inchikey>  (1864) 
IWYQWBYJIBQUPU-UHFFFAOYSA-N

>  <tags>  (1864) 
fragmenstein_placed,CpKRS_FrAncestor_bulkdock_iter2

>  <ref_pdb>  (1864) 
x0421a

>  <energy_score>  (1864) 
-11.498981

>  <distance_score>  (1864) 
0.671212

>  <HIPPO Pose ID>  (1864) 
62518

>  <ref_mols>  (1864) 
x0434a

>  <smiles>  (1864) 
C=CCNC(=O)c1cccc2sccc12

>  <HIPPO Compound ID>  (1864) 
30647

>  <alias>  (1864) 
IWYQWBYJIBQUPU-UHFFFAOYSA-N-P17

>  <subsites>  (1864) 


>  <placement_batch>  (1864) 
CpKRS_FrAncestor_bulkdock_iter2

>  <name>  (1864) 
IWYQWBYJIBQUPU-UHFFFAOYSA-N-P17

$$$$
GBFXDCBPHQZDHS-UHFFFAOYSA-N-P44
     RDKit          3D

 17 18  0  0  0  0  0  0  0  0999 V2000
  -14.8850  -12.8149   45.6608 C   0  0  0  0  0  0  0  0  0  0  0  0
  -13.9951  -13.6213   45.6230 C   0  0  0  0  0  0  0  0  0  0  0  0
  -12.8972  -14.6065   45.5862 C   0  0  2  0  0  0  0  0  0  0  0  0
  -11.7403  -13.9755   46.1850 N   0  0  0  0  0  0  0  0  0  0  0  0
  -10.6745  -13.0469   45.5688 C   0  0  0  0  0  0  0  0  0  0  0  0
  -10.5165  -12.7058   44.4648 O   0  0  0  0  0  0  0  0  0  0  0  0
   -9.7401  -12.4884   46.5938 C   0  0  0  0  0  0  0  0  0  0  0  0
   -9.2348  -11.1979   46.4016 C   0  0  0  0  0  0  0  0  0  0  0  0
   -8.3551  -10.6495   47.3307 C   0  0  0  0  0  0  0  0  0  0  0  0
   -8.0087  -11.4141   48.4309 C   0  0  0  0  0  0  0  0  0  0  0  0
   -8.4696  -12.6633   48.6531 N   0  0  0  0  0  0  0  0  0  0  0  0
   -9.3042  -13.1829   47.7149 C   0  0  0  0  0  0  0  0  0  0  0  0
  -12.6389  -15.1261   44.1505 C   0  0  0  0  0  0  0  0  0  0  0  0
  -11.5372  -16.2034   44.1078 C   0  0  0  0  0  0  0  0  0  0  0  0
  -12.2193  -17.5364   43.8050 C   0  0  0  0  0  0  0  0  0  0  0  0
  -13.7065  -17.2799   43.9522 C   0  0  0  0  0  0  0  0  0  0  0  0
  -13.8530  -15.8313   43.5249 C   0  0  0  0  0  0  0  0  0  0  0  0
  1  2  3  0
  3  2  1  6
  3  4  1  0
  4  5  1  0
  5  6  2  0
  5  7  1  0
  7  8  2  0
  8  9  1  0
  9 10  2  0
 10 11  1  0
 11 12  2  0
  3 13  1  0
 13 14  1  0
 14 15  1  0
 15 16  1  0
 16 17  1  0
 12  7  1  0
 17 13  1  0
M  END
>  <inchikey>  (1865) 
GBFXDCBPHQZDHS-UHFFFAOYSA-N

>  <tags>  (1865) 
fragmenstein_placed,CpKRS_FrAncestor_bulkdock_iter2

>  <ref_pdb>  (1865) 
x0421a

>  <energy_score>  (1865) 
-4.707289

>  <distance_score>  (1865) 
0.804072

>  <HIPPO Pose ID>  (1865) 
62523

>  <ref_mols>  (1865) 
x0502b

>  <smiles>  (1865) 
C#CC(NC(=O)c1cccnc1)C1CCCC1

>  <HIPPO Compound ID>  (1865) 
30650

>  <alias>  (1865) 
GBFXDCBPHQZDHS-UHFFFAOYSA-N-P44

>  <subsites>  (1865) 


>  <placement_batch>  (1865) 
CpKRS_FrAncestor_bulkdock_iter2

>  <name>  (1865) 
GBFXDCBPHQZDHS-UHFFFAOYSA-N-P44

$$$$
GOWNIANYHOPITB-UHFFFAOYSA-N-P44
     RDKit          3D

 17 18  0  0  0  0  0  0  0  0999 V2000
  -12.3845  -16.7003   46.6738 C   0  0  0  0  0  0  0  0  0  0  0  0
  -12.5335  -15.3241   46.0060 C   0  0  0  0  0  0  0  0  0  0  0  0
  -13.7831  -14.6478   46.6070 C   0  0  0  0  0  0  0  0  0  0  0  0
  -11.3724  -14.5045   46.3856 N   0  0  0  0  0  0  0  0  0  0  0  0
  -11.1043  -12.9961   46.1946 C   0  0  0  0  0  0  0  0  0  0  0  0
  -11.7279  -12.1818   45.6381 O   0  0  0  0  0  0  0  0  0  0  0  0
   -9.8665  -12.5384   46.8861 C   0  0  0  0  0  0  0  0  0  0  0  0
   -9.1471  -11.4645   46.3533 C   0  0  0  0  0  0  0  0  0  0  0  0
   -8.0463  -10.9623   47.0410 C   0  0  0  0  0  0  0  0  0  0  0  0
   -7.7055  -11.5503   48.2476 C   0  0  0  0  0  0  0  0  0  0  0  0
   -8.3864  -12.5746   48.8058 N   0  0  0  0  0  0  0  0  0  0  0  0
   -9.4557  -13.0437   48.1129 C   0  0  0  0  0  0  0  0  0  0  0  0
  -12.6207  -15.3622   44.4415 C   0  0  0  0  0  0  0  0  0  0  0  0
  -13.9282  -15.8574   43.8114 C   0  0  0  0  0  0  0  0  0  0  0  0
  -13.7675  -17.3558   43.6257 C   0  0  0  0  0  0  0  0  0  0  0  0
  -12.2717  -17.5983   43.4946 C   0  0  0  0  0  0  0  0  0  0  0  0
  -11.5821  -16.2643   43.7637 C   0  0  0  0  0  0  0  0  0  0  0  0
  1  2  1  0
  2  3  1  0
  2  4  1  0
  4  5  1  0
  5  6  2  0
  5  7  1  0
  7  8  2  0
  8  9  1  0
  9 10  2  0
 10 11  1  0
 11 12  2  0
  2 13  1  0
 13 14  1  0
 14 15  1  0
 15 16  1  0
 16 17  1  0
 12  7  1  0
 17 13  1  0
M  END
>  <inchikey>  (1866) 
GOWNIANYHOPITB-UHFFFAOYSA-N

>  <tags>  (1866) 
fragmenstein_placed,CpKRS_FrAncestor_bulkdock_iter2

>  <ref_pdb>  (1866) 
x0421a

>  <energy_score>  (1866) 
-10.446626

>  <distance_score>  (1866) 
0.454627

>  <HIPPO Pose ID>  (1866) 
62526

>  <ref_mols>  (1866) 
x0502b

>  <smiles>  (1866) 
CC(C)(NC(=O)c1cccnc1)C1CCCC1

>  <HIPPO Compound ID>  (1866) 
30651

>  <alias>  (1866) 
GOWNIANYHOPITB-UHFFFAOYSA-N-P44

>  <subsites>  (1866) 


>  <placement_batch>  (1866) 
CpKRS_FrAncestor_bulkdock_iter2

>  <name>  (1866) 
GOWNIANYHOPITB-UHFFFAOYSA-N-P44

$$$$
VAFZJMOTNXZNTO-UHFFFAOYSA-N-P44
     RDKit          3D

 18 19  0  0  0  0  0  0  0  0999 V2000
  -11.6021  -17.7107   46.9931 C   0  0  0  0  0  0  0  0  0  0  0  0
  -11.7656  -16.6454   46.4610 C   0  0  0  0  0  0  0  0  0  0  0  0
  -11.9592  -15.3230   45.8502 C   0  0  1  0  0  0  0  0  0  0  0  0
  -10.9497  -14.4309   46.3682 N   0  0  0  0  0  0  0  0  0  0  0  0
  -10.9078  -12.8966   46.4247 C   0  0  0  0  0  0  0  0  0  0  0  0
  -11.6451  -12.1050   45.9939 O   0  0  0  0  0  0  0  0  0  0  0  0
   -9.6895  -12.3982   47.1112 C   0  0  0  0  0  0  0  0  0  0  0  0
   -9.0443  -11.2628   46.6154 C   0  0  0  0  0  0  0  0  0  0  0  0
   -7.9300  -10.7638   47.2812 C   0  0  0  0  0  0  0  0  0  0  0  0
   -7.5087  -11.4167   48.4279 C   0  0  0  0  0  0  0  0  0  0  0  0
   -8.1201  -12.5040   48.9477 N   0  0  0  0  0  0  0  0  0  0  0  0
   -9.2018  -12.9722   48.2768 C   0  0  0  0  0  0  0  0  0  0  0  0
  -11.9403  -15.2753   44.2919 C   0  0  0  0  0  0  0  0  0  0  0  0
  -13.2897  -14.7909   43.7291 C   0  0  0  0  0  0  0  0  0  0  0  0
  -14.3477  -15.8854   43.7357 C   0  0  0  0  0  0  0  0  0  0  0  0
  -13.8858  -17.0977   42.9400 C   0  0  0  0  0  0  0  0  0  0  0  0
  -12.5562  -17.6363   43.4466 C   0  0  0  0  0  0  0  0  0  0  0  0
  -11.4865  -16.5520   43.5608 C   0  0  0  0  0  0  0  0  0  0  0  0
  1  2  3  0
  3  2  1  6
  3  4  1  0
  4  5  1  0
  5  6  2  0
  5  7  1  0
  7  8  2  0
  8  9  1  0
  9 10  2  0
 10 11  1  0
 11 12  2  0
  3 13  1  0
 13 14  1  0
 14 15  1  0
 15 16  1  0
 16 17  1  0
 17 18  1  0
 12  7  1  0
 18 13  1  0
M  END
>  <inchikey>  (1867) 
VAFZJMOTNXZNTO-UHFFFAOYSA-N

>  <tags>  (1867) 
fragmenstein_placed,CpKRS_FrAncestor_bulkdock_iter2

>  <ref_pdb>  (1867) 
x0421a

>  <energy_score>  (1867) 
-7.259132

>  <distance_score>  (1867) 
0.584193

>  <HIPPO Pose ID>  (1867) 
62529

>  <ref_mols>  (1867) 
x0502b

>  <smiles>  (1867) 
C#CC(NC(=O)c1cccnc1)C1CCCCC1

>  <HIPPO Compound ID>  (1867) 
30652

>  <alias>  (1867) 
VAFZJMOTNXZNTO-UHFFFAOYSA-N-P44

>  <subsites>  (1867) 


>  <placement_batch>  (1867) 
CpKRS_FrAncestor_bulkdock_iter2

>  <name>  (1867) 
VAFZJMOTNXZNTO-UHFFFAOYSA-N-P44

$$$$
RWDXMJDESYMXEW-UHFFFAOYSA-N-P20
     RDKit          3D

 15 16  0  0  0  0  0  0  0  0999 V2000
    1.1894    7.5579   45.9906 C   0  0  0  0  0  0  0  0  0  0  0  0
    1.3618    6.4373   45.6122 C   0  0  0  0  0  0  0  0  0  0  0  0
    1.7665    5.1761   45.0137 C   0  0  1  0  0  0  0  0  0  0  0  0
    2.7501    5.4883   44.0334 N   0  0  0  0  0  0  0  0  0  0  0  0
    3.5265    4.5804   43.0811 C   0  0  0  0  0  0  0  0  0  0  0  0
    3.5469    3.4212   42.9933 O   0  0  0  0  0  0  0  0  0  0  0  0
    4.2471    5.4404   42.1230 C   0  0  0  0  0  0  0  0  0  0  0  0
    5.0655    5.0559   41.0313 C   0  0  0  0  0  0  0  0  0  0  0  0
    5.3953    6.2399   40.4208 C   0  0  0  0  0  0  0  0  0  0  0  0
    6.1626    6.6101   39.2282 C   0  0  0  0  0  0  0  0  0  0  0  0
    4.8623    7.2746   41.1198 O   0  0  0  0  0  0  0  0  0  0  0  0
    4.1555    6.7845   42.1977 N   0  0  0  0  0  0  0  0  0  0  0  0
    2.1358    4.3037   46.1533 C   0  0  0  0  0  0  0  0  0  0  0  0
    3.1500    4.7037   47.1504 C   0  0  0  0  0  0  0  0  0  0  0  0
    3.4263    3.5274   46.2648 C   0  0  0  0  0  0  0  0  0  0  0  0
  1  2  3  0
  3  2  1  1
  3  4  1  0
  4  5  1  0
  5  6  2  0
  5  7  1  0
  7  8  1  0
  8  9  2  0
  9 10  1  0
  9 11  1  0
 11 12  1  0
  3 13  1  0
 13 14  1  0
 14 15  1  0
 12  7  2  0
 15 13  1  0
M  END
>  <inchikey>  (1868) 
RWDXMJDESYMXEW-UHFFFAOYSA-N

>  <tags>  (1868) 
fragmenstein_placed,CpKRS_FrAncestor_bulkdock_iter2

>  <ref_pdb>  (1868) 
x0421a

>  <energy_score>  (1868) 
-4.763853

>  <distance_score>  (1868) 
0.685487

>  <HIPPO Pose ID>  (1868) 
62531

>  <ref_mols>  (1868) 
x0456a

>  <smiles>  (1868) 
C#CC(NC(=O)c1cc(C)on1)C1CC1

>  <HIPPO Compound ID>  (1868) 
30653

>  <alias>  (1868) 
RWDXMJDESYMXEW-UHFFFAOYSA-N-P20

>  <subsites>  (1868) 


>  <placement_batch>  (1868) 
CpKRS_FrAncestor_bulkdock_iter2

>  <name>  (1868) 
RWDXMJDESYMXEW-UHFFFAOYSA-N-P20

$$$$
NUNSGBRJTZXTHK-UHFFFAOYSA-N-P44
     RDKit          3D

 17 18  0  0  0  0  0  0  0  0999 V2000
  -11.9642  -17.7945   46.9920 C   0  0  0  0  0  0  0  0  0  0  0  0
  -12.1798  -16.6754   46.6108 C   0  0  0  0  0  0  0  0  0  0  0  0
  -12.4168  -15.2958   46.1518 C   0  0  1  0  0  0  0  0  0  0  0  0
  -11.3169  -14.4718   46.5892 N   0  0  0  0  0  0  0  0  0  0  0  0
  -11.1555  -12.9418   46.5966 C   0  0  0  0  0  0  0  0  0  0  0  0
  -11.8532  -12.1073   46.1801 O   0  0  0  0  0  0  0  0  0  0  0  0
   -9.9035  -12.5881   47.2627 C   0  0  0  0  0  0  0  0  0  0  0  0
   -9.1626  -13.2158   48.2487 C   0  0  0  0  0  0  0  0  0  0  0  0
   -8.0187  -12.4346   48.5840 C   0  0  0  0  0  0  0  0  0  0  0  0
   -7.8593  -11.2862   47.9344 N   0  0  0  0  0  0  0  0  0  0  0  0
   -9.1130  -11.1203   46.8596 S   0  0  0  0  0  0  0  0  0  0  0  0
  -12.6290  -15.1743   44.6191 C   0  0  0  0  0  0  0  0  0  0  0  0
  -13.9491  -15.8003   44.1324 C   0  0  0  0  0  0  0  0  0  0  0  0
  -13.8778  -17.2879   43.8003 C   0  0  0  0  0  0  0  0  0  0  0  0
  -12.6037  -17.7009   43.0689 C   0  0  0  0  0  0  0  0  0  0  0  0
  -11.7681  -16.5134   42.6150 C   0  0  0  0  0  0  0  0  0  0  0  0
  -11.4087  -15.6462   43.8085 C   0  0  0  0  0  0  0  0  0  0  0  0
  1  2  3  0
  3  2  1  6
  3  4  1  0
  4  5  1  0
  5  6  2  0
  5  7  1  0
  7  8  2  0
  8  9  1  0
  9 10  2  0
 10 11  1  0
  3 12  1  0
 12 13  1  0
 13 14  1  0
 14 15  1  0
 15 16  1  0
 16 17  1  0
 11  7  1  0
 17 12  1  0
M  END
>  <inchikey>  (1869) 
NUNSGBRJTZXTHK-UHFFFAOYSA-N

>  <tags>  (1869) 
fragmenstein_placed,CpKRS_FrAncestor_bulkdock_iter2

>  <ref_pdb>  (1869) 
x0421a

>  <energy_score>  (1869) 
-17.975504

>  <distance_score>  (1869) 
0.590735

>  <HIPPO Pose ID>  (1869) 
62538

>  <ref_mols>  (1869) 
x0502b

>  <smiles>  (1869) 
C#CC(NC(=O)c1ccns1)C1CCCCC1

>  <HIPPO Compound ID>  (1869) 
30657

>  <alias>  (1869) 
NUNSGBRJTZXTHK-UHFFFAOYSA-N-P44

>  <subsites>  (1869) 


>  <placement_batch>  (1869) 
CpKRS_FrAncestor_bulkdock_iter2

>  <name>  (1869) 
NUNSGBRJTZXTHK-UHFFFAOYSA-N-P44

$$$$
WFYYFOCVNWWEIH-UHFFFAOYSA-N-P38
     RDKit          3D

 18 18  0  0  0  0  0  0  0  0999 V2000
    5.1527  -12.1883   21.7278 C   0  0  0  0  0  0  0  0  0  0  0  0
    4.9833  -10.7359   21.9893 C   0  0  0  0  0  0  0  0  0  0  0  0
    5.0003  -10.3804   23.4623 C   0  0  2  0  0  0  0  0  0  0  0  0
    4.2176  -11.3260   24.2424 N   0  0  0  0  0  0  0  0  0  0  0  0
    4.5627  -12.7518   24.7330 C   0  0  0  0  0  0  0  0  0  0  0  0
    5.5560  -13.3585   24.6536 O   0  0  0  0  0  0  0  0  0  0  0  0
    3.4042  -13.3221   25.5006 C   0  0  0  0  0  0  0  0  0  0  0  0
    3.6508  -14.3969   26.2724 C   0  0  0  0  0  0  0  0  0  0  0  0
    2.7514  -14.9738   27.1614 N   0  0  0  0  0  0  0  0  0  0  0  0
    3.1374  -16.1695   27.9113 C   0  0  0  0  0  0  0  0  0  0  0  0
    1.4663  -14.4695   27.1992 C   0  0  0  0  0  0  0  0  0  0  0  0
    1.0472  -13.4349   26.4636 C   0  0  0  0  0  0  0  0  0  0  0  0
    2.0350  -12.7561   25.5889 C   0  0  0  0  0  0  0  0  0  0  0  0
    1.7084  -11.7245   25.0032 O   0  0  0  0  0  0  0  0  0  0  0  0
    4.5502   -8.9087   23.6090 C   0  0  0  0  0  0  0  0  0  0  0  0
    4.8499   -8.4292   25.0321 C   0  0  0  0  0  0  0  0  0  0  0  0
    5.3707   -8.0099   22.6531 C   0  0  0  0  0  0  0  0  0  0  0  0
    3.0429   -8.7562   23.2974 C   0  0  0  0  0  0  0  0  0  0  0  0
  1  2  1  0
  3  2  1  6
  3  4  1  0
  4  5  1  0
  5  6  2  0
  5  7  1  0
  7  8  2  0
  8  9  1  0
  9 10  1  0
  9 11  1  0
 11 12  2  0
 12 13  1  0
 13 14  2  0
  3 15  1  0
 15 16  1  0
 15 17  1  0
 15 18  1  0
 13  7  1  0
M  END
>  <inchikey>  (1870) 
WFYYFOCVNWWEIH-UHFFFAOYSA-N

>  <tags>  (1870) 
fragmenstein_placed,CpKRS_FrAncestor_bulkdock_iter2

>  <ref_pdb>  (1870) 
x0421a

>  <energy_score>  (1870) 
-24.237848

>  <distance_score>  (1870) 
0.70173

>  <HIPPO Pose ID>  (1870) 
62554

>  <ref_mols>  (1870) 
x0555a

>  <smiles>  (1870) 
CCC(NC(=O)c1cn(C)ccc1=O)C(C)(C)C

>  <HIPPO Compound ID>  (1870) 
30565

>  <alias>  (1870) 
WFYYFOCVNWWEIH-UHFFFAOYSA-N-P38

>  <subsites>  (1870) 


>  <placement_batch>  (1870) 
CpKRS_FrAncestor_bulkdock_iter2

>  <name>  (1870) 
WFYYFOCVNWWEIH-UHFFFAOYSA-N-P38

$$$$
NTRMJOYLIVLOMX-UHFFFAOYSA-N-P44
     RDKit          3D

 17 18  0  0  0  0  0  0  0  0999 V2000
  -13.3779  -16.4681   47.8187 C   0  0  0  0  0  0  0  0  0  0  0  0
  -13.0457  -15.6105   47.0456 C   0  0  0  0  0  0  0  0  0  0  0  0
  -12.6267  -14.5508   46.1138 C   0  0  1  0  0  0  0  0  0  0  0  0
  -11.3894  -13.9858   46.5818 N   0  0  0  0  0  0  0  0  0  0  0  0
  -10.7160  -12.6415   46.2520 C   0  0  0  0  0  0  0  0  0  0  0  0
  -11.0179  -11.8125   45.4910 O   0  0  0  0  0  0  0  0  0  0  0  0
   -9.5617  -12.4267   47.1201 C   0  0  0  0  0  0  0  0  0  0  0  0
   -9.0155  -13.0747   48.2115 C   0  0  0  0  0  0  0  0  0  0  0  0
   -7.9397  -12.3752   48.7039 N   0  0  0  0  0  0  0  0  0  0  0  0
   -7.8491  -11.3525   47.8879 C   0  0  0  0  0  0  0  0  0  0  0  0
   -8.7899  -11.3036   46.9114 O   0  0  0  0  0  0  0  0  0  0  0  0
  -12.5325  -15.0152   44.6398 C   0  0  0  0  0  0  0  0  0  0  0  0
  -13.9411  -15.2030   44.0383 C   0  0  0  0  0  0  0  0  0  0  0  0
  -13.8843  -16.0064   42.7478 C   0  0  0  0  0  0  0  0  0  0  0  0
  -13.3550  -17.4206   42.9825 C   0  0  0  0  0  0  0  0  0  0  0  0
  -12.4267  -17.5283   44.1891 C   0  0  0  0  0  0  0  0  0  0  0  0
  -11.6307  -16.2493   44.4166 C   0  0  0  0  0  0  0  0  0  0  0  0
  1  2  3  0
  3  2  1  1
  3  4  1  0
  4  5  1  0
  5  6  2  0
  5  7  1  0
  7  8  2  0
  8  9  1  0
  9 10  2  0
 10 11  1  0
  3 12  1  0
 12 13  1  0
 13 14  1  0
 14 15  1  0
 15 16  1  0
 16 17  1  0
 11  7  1  0
 17 12  1  0
M  END
>  <inchikey>  (1871) 
NTRMJOYLIVLOMX-UHFFFAOYSA-N

>  <tags>  (1871) 
fragmenstein_placed,CpKRS_FrAncestor_bulkdock_iter2

>  <ref_pdb>  (1871) 
x0421a

>  <energy_score>  (1871) 
-8.231704

>  <distance_score>  (1871) 
0.662124

>  <HIPPO Pose ID>  (1871) 
62556

>  <ref_mols>  (1871) 
x0502b

>  <smiles>  (1871) 
C#CC(NC(=O)c1cnco1)C1CCCCC1

>  <HIPPO Compound ID>  (1871) 
30663

>  <alias>  (1871) 
NTRMJOYLIVLOMX-UHFFFAOYSA-N-P44

>  <subsites>  (1871) 


>  <placement_batch>  (1871) 
CpKRS_FrAncestor_bulkdock_iter2

>  <name>  (1871) 
NTRMJOYLIVLOMX-UHFFFAOYSA-N-P44

$$$$
SBJDAGLXBLLMNQ-UHFFFAOYSA-N-P44
     RDKit          3D

 17 18  0  0  0  0  0  0  0  0999 V2000
  -12.3224  -16.6944   46.6991 C   0  0  0  0  0  0  0  0  0  0  0  0
  -12.5862  -15.2402   46.2857 C   0  0  0  0  0  0  0  0  0  0  0  0
  -13.8235  -14.7617   47.0824 C   0  0  0  0  0  0  0  0  0  0  0  0
  -11.4528  -14.4323   46.7498 N   0  0  0  0  0  0  0  0  0  0  0  0
  -11.1645  -12.9212   46.5910 C   0  0  0  0  0  0  0  0  0  0  0  0
  -11.8197  -12.0706   46.1336 O   0  0  0  0  0  0  0  0  0  0  0  0
   -9.8925  -12.5827   47.2224 C   0  0  0  0  0  0  0  0  0  0  0  0
   -9.0916  -13.1742   48.1799 C   0  0  0  0  0  0  0  0  0  0  0  0
   -8.0186  -12.3702   48.4807 N   0  0  0  0  0  0  0  0  0  0  0  0
   -8.1820  -11.3426   47.6822 C   0  0  0  0  0  0  0  0  0  0  0  0
   -9.2902  -11.3858   46.8984 O   0  0  0  0  0  0  0  0  0  0  0  0
  -12.8405  -15.0231   44.7428 C   0  0  0  0  0  0  0  0  0  0  0  0
  -13.9862  -15.8565   44.1234 C   0  0  0  0  0  0  0  0  0  0  0  0
  -13.5918  -17.2471   43.6303 C   0  0  0  0  0  0  0  0  0  0  0  0
  -12.3805  -17.2023   42.7153 C   0  0  0  0  0  0  0  0  0  0  0  0
  -11.2115  -16.4818   43.3650 C   0  0  0  0  0  0  0  0  0  0  0  0
  -11.5959  -15.0861   43.8355 C   0  0  0  0  0  0  0  0  0  0  0  0
  1  2  1  0
  2  3  1  0
  2  4  1  0
  4  5  1  0
  5  6  2  0
  5  7  1  0
  7  8  2  0
  8  9  1  0
  9 10  2  0
 10 11  1  0
  2 12  1  0
 12 13  1  0
 13 14  1  0
 14 15  1  0
 15 16  1  0
 16 17  1  0
 11  7  1  0
 17 12  1  0
M  END
>  <inchikey>  (1872) 
SBJDAGLXBLLMNQ-UHFFFAOYSA-N

>  <tags>  (1872) 
fragmenstein_placed,CpKRS_FrAncestor_bulkdock_iter2

>  <ref_pdb>  (1872) 
x0421a

>  <energy_score>  (1872) 
-22.948107

>  <distance_score>  (1872) 
0.561917

>  <HIPPO Pose ID>  (1872) 
62559

>  <ref_mols>  (1872) 
x0502b

>  <smiles>  (1872) 
CC(C)(NC(=O)c1cnco1)C1CCCCC1

>  <HIPPO Compound ID>  (1872) 
30664

>  <alias>  (1872) 
SBJDAGLXBLLMNQ-UHFFFAOYSA-N-P44

>  <subsites>  (1872) 


>  <placement_batch>  (1872) 
CpKRS_FrAncestor_bulkdock_iter2

>  <name>  (1872) 
SBJDAGLXBLLMNQ-UHFFFAOYSA-N-P44

$$$$
WVOQQLFZEAEOSE-UHFFFAOYSA-N-P45
     RDKit          3D

 17 18  0  0  0  0  0  0  0  0999 V2000
    5.6859  -12.7333   22.0798 C   0  0  0  0  0  0  0  0  0  0  0  0
    4.6884  -12.1704   22.4254 C   0  0  0  0  0  0  0  0  0  0  0  0
    3.5056  -11.5947   23.0537 C   0  0  1  0  0  0  0  0  0  0  0  0
    3.1600  -12.4334   24.1793 N   0  0  0  0  0  0  0  0  0  0  0  0
    4.0573  -13.2730   25.1202 C   0  0  0  0  0  0  0  0  0  0  0  0
    5.2068  -13.4789   25.0852 O   0  0  0  0  0  0  0  0  0  0  0  0
    3.2658  -13.9145   26.1663 C   0  0  0  0  0  0  0  0  0  0  0  0
    3.6937  -14.9320   27.0014 C   0  0  0  0  0  0  0  0  0  0  0  0
    2.8276  -15.2999   28.0103 N   0  0  0  0  0  0  0  0  0  0  0  0
    1.7421  -14.5718   27.9105 C   0  0  0  0  0  0  0  0  0  0  0  0
    1.6608  -13.4833   26.5855 S   0  0  0  0  0  0  0  0  0  0  0  0
    3.7281  -10.1055   23.3910 C   0  0  0  0  0  0  0  0  0  0  0  0
    4.0497   -9.2370   22.1548 C   0  0  0  0  0  0  0  0  0  0  0  0
    5.4676   -8.6910   22.1330 C   0  0  0  0  0  0  0  0  0  0  0  0
    5.7815   -7.8805   23.3829 C   0  0  0  0  0  0  0  0  0  0  0  0
    5.1554   -8.4510   24.6463 C   0  0  0  0  0  0  0  0  0  0  0  0
    4.7815   -9.9096   24.4789 C   0  0  0  0  0  0  0  0  0  0  0  0
  1  2  3  0
  3  2  1  1
  3  4  1  0
  4  5  1  0
  5  6  2  0
  5  7  1  0
  7  8  2  0
  8  9  1  0
  9 10  2  0
 10 11  1  0
  3 12  1  0
 12 13  1  0
 13 14  1  0
 14 15  1  0
 15 16  1  0
 16 17  1  0
 11  7  1  0
 17 12  1  0
M  END
>  <inchikey>  (1873) 
WVOQQLFZEAEOSE-UHFFFAOYSA-N

>  <tags>  (1873) 
fragmenstein_placed,CpKRS_FrAncestor_bulkdock_iter2

>  <ref_pdb>  (1873) 
x0421a

>  <energy_score>  (1873) 
-12.190034

>  <distance_score>  (1873) 
0.625373

>  <HIPPO Pose ID>  (1873) 
62561

>  <ref_mols>  (1873) 
x0502a

>  <smiles>  (1873) 
C#CC(NC(=O)c1cncs1)C1CCCCC1

>  <HIPPO Compound ID>  (1873) 
30665

>  <alias>  (1873) 
WVOQQLFZEAEOSE-UHFFFAOYSA-N-P45

>  <subsites>  (1873) 


>  <placement_batch>  (1873) 
CpKRS_FrAncestor_bulkdock_iter2

>  <name>  (1873) 
WVOQQLFZEAEOSE-UHFFFAOYSA-N-P45

$$$$
USVIQLJFRHMGAL-UHFFFAOYSA-N-P20
     RDKit          3D

 15 16  0  0  0  0  0  0  0  0999 V2000
    1.2912    7.8260   45.4825 C   0  0  0  0  0  0  0  0  0  0  0  0
    1.6884    6.7196   45.2608 C   0  0  0  0  0  0  0  0  0  0  0  0
    2.2452    5.4355   44.8825 C   0  0  1  0  0  0  0  0  0  0  0  0
    3.1002    5.5811   43.7502 N   0  0  0  0  0  0  0  0  0  0  0  0
    3.8419    4.5306   42.9235 C   0  0  0  0  0  0  0  0  0  0  0  0
    3.9392    3.3821   43.0761 O   0  0  0  0  0  0  0  0  0  0  0  0
    4.5372    5.2119   41.8315 C   0  0  0  0  0  0  0  0  0  0  0  0
    5.3805    4.6341   40.9133 C   0  0  0  0  0  0  0  0  0  0  0  0
    5.8040    5.5961   40.0568 O   0  0  0  0  0  0  0  0  0  0  0  0
    5.2105    6.7374   40.5121 C   0  0  0  0  0  0  0  0  0  0  0  0
    5.4332    8.2504   39.7534 Cl  0  0  0  0  0  0  0  0  0  0  0  0
    4.4657    6.5794   41.5921 N   0  0  0  0  0  0  0  0  0  0  0  0
    3.0148    4.9945   46.0861 C   0  0  0  0  0  0  0  0  0  0  0  0
    2.3442    4.1814   47.1733 C   0  0  0  0  0  0  0  0  0  0  0  0
    3.3129    3.5299   46.2341 C   0  0  0  0  0  0  0  0  0  0  0  0
  1  2  3  0
  3  2  1  1
  3  4  1  0
  4  5  1  0
  5  6  2  0
  5  7  1  0
  7  8  2  0
  8  9  1  0
  9 10  1  0
 10 11  1  0
 10 12  2  0
  3 13  1  0
 13 14  1  0
 14 15  1  0
 12  7  1  0
 15 13  1  0
M  END
>  <inchikey>  (1874) 
USVIQLJFRHMGAL-UHFFFAOYSA-N

>  <tags>  (1874) 
fragmenstein_placed,CpKRS_FrAncestor_bulkdock_iter2

>  <ref_pdb>  (1874) 
x0421a

>  <energy_score>  (1874) 
-16.426692

>  <distance_score>  (1874) 
0.691512

>  <HIPPO Pose ID>  (1874) 
62581

>  <ref_mols>  (1874) 
x0456a

>  <smiles>  (1874) 
C#CC(NC(=O)c1coc(Cl)n1)C1CC1

>  <HIPPO Compound ID>  (1874) 
30669

>  <alias>  (1874) 
USVIQLJFRHMGAL-UHFFFAOYSA-N-P20

>  <subsites>  (1874) 


>  <placement_batch>  (1874) 
CpKRS_FrAncestor_bulkdock_iter2

>  <name>  (1874) 
USVIQLJFRHMGAL-UHFFFAOYSA-N-P20

$$$$
FYYHDAWOGWMNQU-UHFFFAOYSA-N-P44
     RDKit          3D

 17 18  0  0  0  0  0  0  0  0999 V2000
  -11.6002  -17.9154   46.6559 C   0  0  0  0  0  0  0  0  0  0  0  0
  -11.9008  -16.7829   46.3869 C   0  0  0  0  0  0  0  0  0  0  0  0
  -12.2785  -15.3876   46.1147 C   0  0  1  0  0  0  0  0  0  0  0  0
  -11.2009  -14.5293   46.5471 N   0  0  0  0  0  0  0  0  0  0  0  0
  -11.1085  -12.9984   46.6081 C   0  0  0  0  0  0  0  0  0  0  0  0
  -11.8563  -12.1825   46.2481 O   0  0  0  0  0  0  0  0  0  0  0  0
   -9.8647  -12.5724   47.2603 C   0  0  0  0  0  0  0  0  0  0  0  0
   -9.1321  -13.2092   48.3148 C   0  0  0  0  0  0  0  0  0  0  0  0
   -8.0601  -12.5796   48.7924 N   0  0  0  0  0  0  0  0  0  0  0  0
   -7.8706  -11.1686   47.9472 S   0  0  0  0  0  0  0  0  0  0  0  0
   -9.2418  -11.3725   46.9526 C   0  0  0  0  0  0  0  0  0  0  0  0
  -12.7243  -15.0782   44.6575 C   0  0  0  0  0  0  0  0  0  0  0  0
  -13.9343  -15.9048   44.1796 C   0  0  0  0  0  0  0  0  0  0  0  0
  -13.5935  -17.2903   43.6344 C   0  0  0  0  0  0  0  0  0  0  0  0
  -12.4557  -17.2531   42.6237 C   0  0  0  0  0  0  0  0  0  0  0  0
  -11.2385  -16.4962   43.1368 C   0  0  0  0  0  0  0  0  0  0  0  0
  -11.6079  -15.0967   43.6030 C   0  0  0  0  0  0  0  0  0  0  0  0
  1  2  3  0
  3  2  1  6
  3  4  1  0
  4  5  1  0
  5  6  2  0
  5  7  1  0
  7  8  1  0
  8  9  2  0
  9 10  1  0
 10 11  1  0
  3 12  1  0
 12 13  1  0
 13 14  1  0
 14 15  1  0
 15 16  1  0
 16 17  1  0
 11  7  2  0
 17 12  1  0
M  END
>  <inchikey>  (1875) 
FYYHDAWOGWMNQU-UHFFFAOYSA-N

>  <tags>  (1875) 
fragmenstein_placed,CpKRS_FrAncestor_bulkdock_iter2

>  <ref_pdb>  (1875) 
x0421a

>  <energy_score>  (1875) 
-21.91187

>  <distance_score>  (1875) 
0.565225

>  <HIPPO Pose ID>  (1875) 
62584

>  <ref_mols>  (1875) 
x0502b

>  <smiles>  (1875) 
C#CC(NC(=O)c1cnsc1)C1CCCCC1

>  <HIPPO Compound ID>  (1875) 
30671

>  <alias>  (1875) 
FYYHDAWOGWMNQU-UHFFFAOYSA-N-P44

>  <subsites>  (1875) 


>  <placement_batch>  (1875) 
CpKRS_FrAncestor_bulkdock_iter2

>  <name>  (1875) 
FYYHDAWOGWMNQU-UHFFFAOYSA-N-P44

$$$$
ZZTSWZOOZNKNNO-UHFFFAOYSA-N-P20
     RDKit          3D

 15 16  0  0  0  0  0  0  0  0999 V2000
    1.2847    7.8426   45.4764 C   0  0  0  0  0  0  0  0  0  0  0  0
    1.6711    6.7273   45.2819 C   0  0  0  0  0  0  0  0  0  0  0  0
    2.2145    5.4321   44.9238 C   0  0  1  0  0  0  0  0  0  0  0  0
    3.0788    5.5560   43.7970 N   0  0  0  0  0  0  0  0  0  0  0  0
    3.8246    4.4905   42.9956 C   0  0  0  0  0  0  0  0  0  0  0  0
    3.9183    3.3446   43.1689 O   0  0  0  0  0  0  0  0  0  0  0  0
    4.5442    5.1584   41.8968 C   0  0  0  0  0  0  0  0  0  0  0  0
    5.4404    4.5150   41.0642 C   0  0  0  0  0  0  0  0  0  0  0  0
    6.0229    5.5804   39.8695 S   0  0  0  0  0  0  0  0  0  0  0  0
    5.1281    6.8350   40.5905 C   0  0  0  0  0  0  0  0  0  0  0  0
    5.2095    8.5993   39.8870 Br  0  0  0  0  0  0  0  0  0  0  0  0
    4.4142    6.5329   41.6530 N   0  0  0  0  0  0  0  0  0  0  0  0
    2.9727    4.9943   46.1361 C   0  0  0  0  0  0  0  0  0  0  0  0
    3.2523    3.5273   46.2998 C   0  0  0  0  0  0  0  0  0  0  0  0
    2.2892    4.1995   47.2287 C   0  0  0  0  0  0  0  0  0  0  0  0
  1  2  3  0
  3  2  1  1
  3  4  1  0
  4  5  1  0
  5  6  2  0
  5  7  1  0
  7  8  2  0
  8  9  1  0
  9 10  1  0
 10 11  1  0
 10 12  2  0
  3 13  1  0
 13 14  1  0
 14 15  1  0
 12  7  1  0
 15 13  1  0
M  END
>  <inchikey>  (1876) 
ZZTSWZOOZNKNNO-UHFFFAOYSA-N

>  <tags>  (1876) 
fragmenstein_placed,CpKRS_FrAncestor_bulkdock_iter2

>  <ref_pdb>  (1876) 
x0421a

>  <energy_score>  (1876) 
-39.540925

>  <distance_score>  (1876) 
0.750374

>  <HIPPO Pose ID>  (1876) 
62586

>  <ref_mols>  (1876) 
x0456a

>  <smiles>  (1876) 
C#CC(NC(=O)c1csc(Br)n1)C1CC1

>  <HIPPO Compound ID>  (1876) 
30672

>  <alias>  (1876) 
ZZTSWZOOZNKNNO-UHFFFAOYSA-N-P20

>  <subsites>  (1876) 


>  <placement_batch>  (1876) 
CpKRS_FrAncestor_bulkdock_iter2

>  <name>  (1876) 
ZZTSWZOOZNKNNO-UHFFFAOYSA-N-P20

$$$$
MSOFMEICSKEYOB-UHFFFAOYSA-N-P20
     RDKit          3D

 15 16  0  0  0  0  0  0  0  0999 V2000
    1.2850    7.8388   45.4818 C   0  0  0  0  0  0  0  0  0  0  0  0
    1.6761    6.7274   45.2755 C   0  0  0  0  0  0  0  0  0  0  0  0
    2.2269    5.4386   44.9058 C   0  0  1  0  0  0  0  0  0  0  0  0
    3.0868    5.5766   43.7771 N   0  0  0  0  0  0  0  0  0  0  0  0
    3.8337    4.5215   42.9628 C   0  0  0  0  0  0  0  0  0  0  0  0
    3.9321    3.3744   43.1248 O   0  0  0  0  0  0  0  0  0  0  0  0
    4.5446    5.2012   41.8650 C   0  0  0  0  0  0  0  0  0  0  0  0
    5.4255    4.5638   41.0089 C   0  0  0  0  0  0  0  0  0  0  0  0
    6.0049    5.6490   39.8263 S   0  0  0  0  0  0  0  0  0  0  0  0
    5.1225    6.8838   40.5775 C   0  0  0  0  0  0  0  0  0  0  0  0
    5.2147    8.4608   39.9404 Cl  0  0  0  0  0  0  0  0  0  0  0  0
    4.4169    6.5802   41.6423 N   0  0  0  0  0  0  0  0  0  0  0  0
    2.9908    4.9975   46.1132 C   0  0  0  0  0  0  0  0  0  0  0  0
    3.2807    3.5314   46.2663 C   0  0  0  0  0  0  0  0  0  0  0  0
    2.3145    4.1910   47.2017 C   0  0  0  0  0  0  0  0  0  0  0  0
  1  2  3  0
  3  2  1  1
  3  4  1  0
  4  5  1  0
  5  6  2  0
  5  7  1  0
  7  8  2  0
  8  9  1  0
  9 10  1  0
 10 11  1  0
 10 12  2  0
  3 13  1  0
 13 14  1  0
 14 15  1  0
 12  7  1  0
 15 13  1  0
M  END
>  <inchikey>  (1877) 
MSOFMEICSKEYOB-UHFFFAOYSA-N

>  <tags>  (1877) 
fragmenstein_placed,CpKRS_FrAncestor_bulkdock_iter2

>  <ref_pdb>  (1877) 
x0421a

>  <energy_score>  (1877) 
-45.350197

>  <distance_score>  (1877) 
0.717052

>  <HIPPO Pose ID>  (1877) 
62587

>  <ref_mols>  (1877) 
x0456a

>  <smiles>  (1877) 
C#CC(NC(=O)c1csc(Cl)n1)C1CC1

>  <HIPPO Compound ID>  (1877) 
30673

>  <alias>  (1877) 
MSOFMEICSKEYOB-UHFFFAOYSA-N-P20

>  <subsites>  (1877) 


>  <placement_batch>  (1877) 
CpKRS_FrAncestor_bulkdock_iter2

>  <name>  (1877) 
MSOFMEICSKEYOB-UHFFFAOYSA-N-P20

$$$$
WAEUUVLJAFCKGN-UHFFFAOYSA-N-P20
     RDKit          3D

 15 16  0  0  0  0  0  0  0  0999 V2000
    0.5497    6.5339   46.1189 C   0  0  0  0  0  0  0  0  0  0  0  0
    1.6984    6.4956   45.7880 C   0  0  0  0  0  0  0  0  0  0  0  0
    3.1242    6.3515   45.5695 C   0  0  2  0  0  0  0  0  0  0  0  0
    3.4910    6.5127   44.1971 N   0  0  0  0  0  0  0  0  0  0  0  0
    3.6599    5.4696   43.0775 C   0  0  0  0  0  0  0  0  0  0  0  0
    3.4524    4.3224   43.0757 O   0  0  0  0  0  0  0  0  0  0  0  0
    4.2684    6.1371   41.9184 C   0  0  0  0  0  0  0  0  0  0  0  0
    4.8834    5.4619   40.8785 C   0  0  0  0  0  0  0  0  0  0  0  0
    5.5665    6.5726   39.7745 S   0  0  0  0  0  0  0  0  0  0  0  0
    5.0475    7.8715   40.7768 C   0  0  0  0  0  0  0  0  0  0  0  0
    5.3355    9.2763   40.3858 C   0  0  0  0  0  0  0  0  0  0  0  0
    4.4140    7.5280   41.8802 N   0  0  0  0  0  0  0  0  0  0  0  0
    3.5700    5.0464   46.1636 C   0  0  0  0  0  0  0  0  0  0  0  0
    2.9850    3.7227   45.7734 C   0  0  0  0  0  0  0  0  0  0  0  0
    2.7618    4.2155   47.1628 C   0  0  0  0  0  0  0  0  0  0  0  0
  1  2  3  0
  3  2  1  6
  3  4  1  0
  4  5  1  0
  5  6  2  0
  5  7  1  0
  7  8  2  0
  8  9  1  0
  9 10  1  0
 10 11  1  0
 10 12  2  0
  3 13  1  0
 13 14  1  0
 14 15  1  0
 12  7  1  0
 15 13  1  0
M  END
>  <inchikey>  (1878) 
WAEUUVLJAFCKGN-UHFFFAOYSA-N

>  <tags>  (1878) 
fragmenstein_placed,CpKRS_FrAncestor_bulkdock_iter2

>  <ref_pdb>  (1878) 
x0421a

>  <energy_score>  (1878) 
-30.27606

>  <distance_score>  (1878) 
0.650065

>  <HIPPO Pose ID>  (1878) 
62588

>  <ref_mols>  (1878) 
x0456a

>  <smiles>  (1878) 
C#CC(NC(=O)c1csc(C)n1)C1CC1

>  <HIPPO Compound ID>  (1878) 
30674

>  <alias>  (1878) 
WAEUUVLJAFCKGN-UHFFFAOYSA-N-P20

>  <subsites>  (1878) 


>  <placement_batch>  (1878) 
CpKRS_FrAncestor_bulkdock_iter2

>  <name>  (1878) 
WAEUUVLJAFCKGN-UHFFFAOYSA-N-P20

$$$$
IJUFKTWHLOHNOA-UHFFFAOYSA-N-P20
     RDKit          3D

 15 16  0  0  0  0  0  0  0  0999 V2000
    1.2436    7.7663   45.7171 C   0  0  0  0  0  0  0  0  0  0  0  0
    1.6267    6.6775   45.4090 C   0  0  0  0  0  0  0  0  0  0  0  0
    2.2387    5.4728   44.8907 C   0  0  1  0  0  0  0  0  0  0  0  0
    3.0348    5.8237   43.7653 N   0  0  0  0  0  0  0  0  0  0  0  0
    3.7746    4.9401   42.7532 C   0  0  0  0  0  0  0  0  0  0  0  0
    3.9155    3.7854   42.7213 O   0  0  0  0  0  0  0  0  0  0  0  0
    4.3820    5.8396   41.7665 C   0  0  0  0  0  0  0  0  0  0  0  0
    4.3162    7.1635   41.8262 N   0  0  0  0  0  0  0  0  0  0  0  0
    5.0367    7.5617   40.7324 C   0  0  0  0  0  0  0  0  0  0  0  0
    5.2622    9.3685   40.2826 Br  0  0  0  0  0  0  0  0  0  0  0  0
    5.5583    6.4748   40.0785 C   0  0  0  0  0  0  0  0  0  0  0  0
    5.1469    5.3520   40.7403 O   0  0  0  0  0  0  0  0  0  0  0  0
    3.0842    4.9836   46.0188 C   0  0  0  0  0  0  0  0  0  0  0  0
    2.5063    4.0385   47.0481 C   0  0  0  0  0  0  0  0  0  0  0  0
    3.4944    3.5401   46.0328 C   0  0  0  0  0  0  0  0  0  0  0  0
  1  2  3  0
  3  2  1  1
  3  4  1  0
  4  5  1  0
  5  6  2  0
  5  7  1  0
  7  8  2  0
  8  9  1  0
  9 10  1  0
  9 11  2  0
 11 12  1  0
  3 13  1  0
 13 14  1  0
 14 15  1  0
 12  7  1  0
 15 13  1  0
M  END
>  <inchikey>  (1879) 
IJUFKTWHLOHNOA-UHFFFAOYSA-N

>  <tags>  (1879) 
fragmenstein_placed,CpKRS_FrAncestor_bulkdock_iter2

>  <ref_pdb>  (1879) 
x0421a

>  <energy_score>  (1879) 
-1.568668

>  <distance_score>  (1879) 
0.56021

>  <HIPPO Pose ID>  (1879) 
62593

>  <ref_mols>  (1879) 
x0456a

>  <smiles>  (1879) 
C#CC(NC(=O)c1nc(Br)co1)C1CC1

>  <HIPPO Compound ID>  (1879) 
30676

>  <alias>  (1879) 
IJUFKTWHLOHNOA-UHFFFAOYSA-N-P20

>  <subsites>  (1879) 


>  <placement_batch>  (1879) 
CpKRS_FrAncestor_bulkdock_iter2

>  <name>  (1879) 
IJUFKTWHLOHNOA-UHFFFAOYSA-N-P20

$$$$
HEQCLVWZBPKXSC-UHFFFAOYSA-N-P20
     RDKit          3D

 15 16  0  0  0  0  0  0  0  0999 V2000
    1.2592    7.7919   45.6273 C   0  0  0  0  0  0  0  0  0  0  0  0
    1.6531    6.7001   45.3419 C   0  0  0  0  0  0  0  0  0  0  0  0
    2.2533    5.4717   44.8640 C   0  0  1  0  0  0  0  0  0  0  0  0
    3.0705    5.7621   43.7349 N   0  0  0  0  0  0  0  0  0  0  0  0
    3.8145    4.8247   42.7752 C   0  0  0  0  0  0  0  0  0  0  0  0
    3.9420    3.6680   42.7982 O   0  0  0  0  0  0  0  0  0  0  0  0
    4.4591    5.6743   41.7572 C   0  0  0  0  0  0  0  0  0  0  0  0
    4.3535    6.9945   41.7819 N   0  0  0  0  0  0  0  0  0  0  0  0
    5.0647    7.5190   40.7233 C   0  0  0  0  0  0  0  0  0  0  0  0
    5.1011    9.3894   40.4411 Br  0  0  0  0  0  0  0  0  0  0  0  0
    5.7463    6.6124   39.9429 C   0  0  0  0  0  0  0  0  0  0  0  0
    5.4719    5.0244   40.5357 S   0  0  0  0  0  0  0  0  0  0  0  0
    3.0758    4.9965   46.0165 C   0  0  0  0  0  0  0  0  0  0  0  0
    3.4588    3.5459   46.0682 C   0  0  0  0  0  0  0  0  0  0  0  0
    2.4720    4.0854   47.0625 C   0  0  0  0  0  0  0  0  0  0  0  0
  1  2  3  0
  3  2  1  1
  3  4  1  0
  4  5  1  0
  5  6  2  0
  5  7  1  0
  7  8  2  0
  8  9  1  0
  9 10  1  0
  9 11  2  0
 11 12  1  0
  3 13  1  0
 13 14  1  0
 14 15  1  0
 12  7  1  0
 15 13  1  0
M  END
>  <inchikey>  (1880) 
HEQCLVWZBPKXSC-UHFFFAOYSA-N

>  <tags>  (1880) 
fragmenstein_placed,CpKRS_FrAncestor_bulkdock_iter2

>  <ref_pdb>  (1880) 
x0421a

>  <energy_score>  (1880) 
-55.513327

>  <distance_score>  (1880) 
0.647816

>  <HIPPO Pose ID>  (1880) 
62594

>  <ref_mols>  (1880) 
x0456a

>  <smiles>  (1880) 
C#CC(NC(=O)c1nc(Br)cs1)C1CC1

>  <HIPPO Compound ID>  (1880) 
30677

>  <alias>  (1880) 
HEQCLVWZBPKXSC-UHFFFAOYSA-N-P20

>  <subsites>  (1880) 


>  <placement_batch>  (1880) 
CpKRS_FrAncestor_bulkdock_iter2

>  <name>  (1880) 
HEQCLVWZBPKXSC-UHFFFAOYSA-N-P20

$$$$
CCWSHYDDOCMIET-UHFFFAOYSA-N-P20
     RDKit          3D

 15 16  0  0  0  0  0  0  0  0999 V2000
    1.2974    7.3268   46.3638 C   0  0  0  0  0  0  0  0  0  0  0  0
    1.5363    6.3739   45.6820 C   0  0  0  0  0  0  0  0  0  0  0  0
    1.8727    5.2127   44.8846 C   0  0  1  0  0  0  0  0  0  0  0  0
    2.7413    5.5741   43.8208 N   0  0  0  0  0  0  0  0  0  0  0  0
    3.6069    4.7054   42.9043 C   0  0  0  0  0  0  0  0  0  0  0  0
    3.8085    3.5595   42.9208 O   0  0  0  0  0  0  0  0  0  0  0  0
    4.2600    5.5979   41.9496 C   0  0  0  0  0  0  0  0  0  0  0  0
    4.1148    6.9168   41.9868 N   0  0  0  0  0  0  0  0  0  0  0  0
    4.7646    7.4541   40.8925 C   0  0  0  0  0  0  0  0  0  0  0  0
    5.4099    6.5324   40.1125 C   0  0  0  0  0  0  0  0  0  0  0  0
    6.2274    6.7848   38.6596 Cl  0  0  0  0  0  0  0  0  0  0  0  0
    5.3011    4.9729   40.7428 S   0  0  0  0  0  0  0  0  0  0  0  0
    2.5884    4.2147   45.7241 C   0  0  0  0  0  0  0  0  0  0  0  0
    3.8855    4.5936   46.3388 C   0  0  0  0  0  0  0  0  0  0  0  0
    2.7260    4.1806   47.2156 C   0  0  0  0  0  0  0  0  0  0  0  0
  1  2  3  0
  3  2  1  1
  3  4  1  0
  4  5  1  0
  5  6  2  0
  5  7  1  0
  7  8  2  0
  8  9  1  0
  9 10  2  0
 10 11  1  0
 10 12  1  0
  3 13  1  0
 13 14  1  0
 14 15  1  0
 12  7  1  0
 15 13  1  0
M  END
>  <inchikey>  (1881) 
CCWSHYDDOCMIET-UHFFFAOYSA-N

>  <tags>  (1881) 
fragmenstein_placed,CpKRS_FrAncestor_bulkdock_iter2

>  <ref_pdb>  (1881) 
x0421a

>  <energy_score>  (1881) 
-25.648448

>  <distance_score>  (1881) 
0.810039

>  <HIPPO Pose ID>  (1881) 
62599

>  <ref_mols>  (1881) 
x0456a

>  <smiles>  (1881) 
C#CC(NC(=O)c1ncc(Cl)s1)C1CC1

>  <HIPPO Compound ID>  (1881) 
30679

>  <alias>  (1881) 
CCWSHYDDOCMIET-UHFFFAOYSA-N-P20

>  <subsites>  (1881) 


>  <placement_batch>  (1881) 
CpKRS_FrAncestor_bulkdock_iter2

>  <name>  (1881) 
CCWSHYDDOCMIET-UHFFFAOYSA-N-P20

$$$$
BNVRUAQKCUCQOS-UHFFFAOYSA-N-P20
     RDKit          3D

 15 16  0  0  0  0  0  0  0  0999 V2000
    0.5444    6.5259   46.1224 C   0  0  0  0  0  0  0  0  0  0  0  0
    1.7035    6.4998   45.8293 C   0  0  0  0  0  0  0  0  0  0  0  0
    3.1360    6.3754   45.6544 C   0  0  2  0  0  0  0  0  0  0  0  0
    3.5554    6.6238   44.3130 N   0  0  0  0  0  0  0  0  0  0  0  0
    3.6251    5.6774   43.0893 C   0  0  0  0  0  0  0  0  0  0  0  0
    3.4234    4.5296   43.0076 O   0  0  0  0  0  0  0  0  0  0  0  0
    4.1182    6.4575   41.9532 C   0  0  0  0  0  0  0  0  0  0  0  0
    4.2953    7.7712   41.9610 N   0  0  0  0  0  0  0  0  0  0  0  0
    4.9621    8.0160   40.7811 C   0  0  0  0  0  0  0  0  0  0  0  0
    5.3272    9.3874   40.3824 C   0  0  0  0  0  0  0  0  0  0  0  0
    5.2130    6.8274   40.1348 C   0  0  0  0  0  0  0  0  0  0  0  0
    4.6884    5.8181   40.8832 O   0  0  0  0  0  0  0  0  0  0  0  0
    3.5753    5.0350   46.1623 C   0  0  0  0  0  0  0  0  0  0  0  0
    2.7720    4.1525   47.1145 C   0  0  0  0  0  0  0  0  0  0  0  0
    2.9773    3.7441   45.6926 C   0  0  0  0  0  0  0  0  0  0  0  0
  1  2  3  0
  3  2  1  6
  3  4  1  0
  4  5  1  0
  5  6  2  0
  5  7  1  0
  7  8  2  0
  8  9  1  0
  9 10  1  0
  9 11  2  0
 11 12  1  0
  3 13  1  0
 13 14  1  0
 14 15  1  0
 12  7  1  0
 15 13  1  0
M  END
>  <inchikey>  (1882) 
BNVRUAQKCUCQOS-UHFFFAOYSA-N

>  <tags>  (1882) 
fragmenstein_placed,CpKRS_FrAncestor_bulkdock_iter2

>  <ref_pdb>  (1882) 
x0421a

>  <energy_score>  (1882) 
-8.03037

>  <distance_score>  (1882) 
0.771565

>  <HIPPO Pose ID>  (1882) 
62600

>  <ref_mols>  (1882) 
x0456a

>  <smiles>  (1882) 
C#CC(NC(=O)c1nc(C)co1)C1CC1

>  <HIPPO Compound ID>  (1882) 
30680

>  <alias>  (1882) 
BNVRUAQKCUCQOS-UHFFFAOYSA-N-P20

>  <subsites>  (1882) 


>  <placement_batch>  (1882) 
CpKRS_FrAncestor_bulkdock_iter2

>  <name>  (1882) 
BNVRUAQKCUCQOS-UHFFFAOYSA-N-P20

$$$$
PJBQMXABAPQYPO-UHFFFAOYSA-N-P20
     RDKit          3D

 15 16  0  0  0  0  0  0  0  0999 V2000
    1.2591    7.7879   45.6345 C   0  0  0  0  0  0  0  0  0  0  0  0
    1.6569    6.7007   45.3375 C   0  0  0  0  0  0  0  0  0  0  0  0
    2.2640    5.4803   44.8489 C   0  0  1  0  0  0  0  0  0  0  0  0
    3.0784    5.7851   43.7213 N   0  0  0  0  0  0  0  0  0  0  0  0
    3.8231    4.8603   42.7503 C   0  0  0  0  0  0  0  0  0  0  0  0
    3.9538    3.7039   42.7605 O   0  0  0  0  0  0  0  0  0  0  0  0
    4.4650    5.7209   41.7393 C   0  0  0  0  0  0  0  0  0  0  0  0
    4.3674    7.0406   41.7822 N   0  0  0  0  0  0  0  0  0  0  0  0
    5.0818    7.5863   40.7307 C   0  0  0  0  0  0  0  0  0  0  0  0
    5.1191    9.2828   40.5204 Cl  0  0  0  0  0  0  0  0  0  0  0  0
    5.7509    6.6776   39.9379 C   0  0  0  0  0  0  0  0  0  0  0  0
    5.4682    5.0830   40.5054 S   0  0  0  0  0  0  0  0  0  0  0  0
    3.0899    5.0014   45.9976 C   0  0  0  0  0  0  0  0  0  0  0  0
    3.4776    3.5518   46.0430 C   0  0  0  0  0  0  0  0  0  0  0  0
    2.4893    4.0839   47.0400 C   0  0  0  0  0  0  0  0  0  0  0  0
  1  2  3  0
  3  2  1  1
  3  4  1  0
  4  5  1  0
  5  6  2  0
  5  7  1  0
  7  8  2  0
  8  9  1  0
  9 10  1  0
  9 11  2  0
 11 12  1  0
  3 13  1  0
 13 14  1  0
 14 15  1  0
 12  7  1  0
 15 13  1  0
M  END
>  <inchikey>  (1883) 
PJBQMXABAPQYPO-UHFFFAOYSA-N

>  <tags>  (1883) 
fragmenstein_placed,CpKRS_FrAncestor_bulkdock_iter2

>  <ref_pdb>  (1883) 
x0421a

>  <energy_score>  (1883) 
-19.890925

>  <distance_score>  (1883) 
0.657333

>  <HIPPO Pose ID>  (1883) 
62601

>  <ref_mols>  (1883) 
x0456a

>  <smiles>  (1883) 
C#CC(NC(=O)c1nc(Cl)cs1)C1CC1

>  <HIPPO Compound ID>  (1883) 
30681

>  <alias>  (1883) 
PJBQMXABAPQYPO-UHFFFAOYSA-N-P20

>  <subsites>  (1883) 


>  <placement_batch>  (1883) 
CpKRS_FrAncestor_bulkdock_iter2

>  <name>  (1883) 
PJBQMXABAPQYPO-UHFFFAOYSA-N-P20

$$$$
SGFUHLYOJXNKBV-UHFFFAOYSA-N-P44
     RDKit          3D

 17 19  0  0  0  0  0  0  0  0999 V2000
  -10.1467   -9.1075   46.1387 C   0  0  0  0  0  0  0  0  0  0  0  0
   -9.0597  -10.1436   45.8553 C   0  0  0  0  0  0  0  0  0  0  0  0
   -8.9127  -10.4417   44.3625 C   0  0  0  0  0  0  0  0  0  0  0  0
   -9.1837  -11.3242   46.7057 N   0  0  0  0  0  0  0  0  0  0  0  0
   -8.4020  -11.5161   47.8188 C   0  0  0  0  0  0  0  0  0  0  0  0
   -8.6753  -12.6440   48.4245 N   0  0  0  0  0  0  0  0  0  0  0  0
   -9.6596  -13.2177   47.6649 C   0  0  0  0  0  0  0  0  0  0  0  0
  -10.0121  -12.4255   46.5811 C   0  0  0  0  0  0  0  0  0  0  0  0
  -11.0264  -12.6452   45.5575 C   0  0  0  0  0  0  0  0  0  0  0  0
  -11.6729  -11.7538   45.1824 O   0  0  0  0  0  0  0  0  0  0  0  0
  -10.9900  -14.1106   45.0989 N   0  0  0  0  0  0  0  0  0  0  0  0
  -11.8093  -14.8133   44.1448 C   0  0  1  0  0  0  0  0  0  0  0  0
  -11.2866  -16.2037   43.7388 C   0  0  0  0  0  0  0  0  0  0  0  0
  -12.5037  -16.9304   43.2435 C   0  0  1  0  0  0  0  0  0  0  0  0
  -13.4364  -17.6504   44.1752 C   0  0  0  0  0  0  0  0  0  0  0  0
  -13.7102  -16.2234   43.7882 C   0  0  1  0  0  0  0  0  0  0  0  0
  -13.2389  -15.0749   44.6390 C   0  0  0  0  0  0  0  0  0  0  0  0
  1  2  1  0
  2  3  1  0
  2  4  1  0
  4  5  1  0
  5  6  2  0
  6  7  1  0
  7  8  2  0
  8  9  1  0
  9 10  2  0
  9 11  1  0
 12 11  1  1
 12 13  1  0
 14 13  1  1
 14 15  1  0
 16 15  1  1
 16 17  1  0
  8  4  1  0
 17 12  1  0
 16 14  1  0
M  END
>  <inchikey>  (1884) 
SGFUHLYOJXNKBV-UHFFFAOYSA-N

>  <tags>  (1884) 
fragmenstein_placed,CpKRS_FrAncestor_bulkdock_iter2

>  <ref_pdb>  (1884) 
x0421a

>  <energy_score>  (1884) 
-6.25525

>  <distance_score>  (1884) 
0.975629

>  <HIPPO Pose ID>  (1884) 
62644

>  <ref_mols>  (1884) 
x0502b

>  <smiles>  (1884) 
CC(C)n1cncc1C(=O)NC1CC2CC2C1

>  <HIPPO Compound ID>  (1884) 
30693

>  <alias>  (1884) 
SGFUHLYOJXNKBV-UHFFFAOYSA-N-P44

>  <subsites>  (1884) 


>  <placement_batch>  (1884) 
CpKRS_FrAncestor_bulkdock_iter2

>  <name>  (1884) 
SGFUHLYOJXNKBV-UHFFFAOYSA-N-P44

$$$$
ZNMPJFRPFVZRBX-UHFFFAOYSA-N-P46
     RDKit          3D

 19 21  0  0  0  0  0  0  0  0999 V2000
   -0.4185  -13.4521   26.1840 C   0  0  0  0  0  0  0  0  0  0  0  0
    1.0665  -13.3005   25.8397 C   0  0  0  0  0  0  0  0  0  0  0  0
    1.3761  -11.8355   26.0182 C   0  0  0  0  0  0  0  0  0  0  0  0
    2.0145  -14.0992   26.6082 N   0  0  0  0  0  0  0  0  0  0  0  0
    1.7301  -14.6372   27.8380 C   0  0  0  0  0  0  0  0  0  0  0  0
    2.6611  -15.4527   28.2564 N   0  0  0  0  0  0  0  0  0  0  0  0
    3.6619  -15.3107   27.3421 C   0  0  0  0  0  0  0  0  0  0  0  0
    3.3562  -14.3794   26.3565 C   0  0  0  0  0  0  0  0  0  0  0  0
    4.3704  -13.8483   25.4295 C   0  0  0  0  0  0  0  0  0  0  0  0
    5.4868  -14.1164   25.6194 O   0  0  0  0  0  0  0  0  0  0  0  0
    3.7358  -12.9159   24.3923 N   0  0  0  0  0  0  0  0  0  0  0  0
    4.3245  -12.1913   23.3127 C   0  0  0  0  0  0  0  0  0  0  0  0
    3.2776  -11.3108   22.6108 C   0  0  0  0  0  0  0  0  0  0  0  0
    3.2736   -9.8550   23.0876 C   0  0  0  0  0  0  0  0  0  0  0  0
    4.6793   -9.3411   23.0056 C   0  0  0  0  0  0  0  0  0  0  0  0
    5.4895   -9.9739   24.0742 C   0  0  0  0  0  0  0  0  0  0  0  0
    5.5839  -11.4490   23.7313 C   0  0  0  0  0  0  0  0  0  0  0  0
    5.0459   -8.0046   22.4309 C   0  0  0  0  0  0  0  0  0  0  0  0
    5.3199   -9.2255   21.6272 C   0  0  0  0  0  0  0  0  0  0  0  0
  1  2  1  0
  2  3  1  0
  2  4  1  0
  4  5  1  0
  5  6  2  0
  6  7  1  0
  7  8  2  0
  8  9  1  0
  9 10  2  0
  9 11  1  0
 11 12  1  0
 12 13  1  0
 13 14  1  0
 14 15  1  0
 15 16  1  0
 16 17  1  0
 15 18  1  0
 18 19  1  0
  8  4  1  0
 17 12  1  0
 19 15  1  0
M  END
>  <inchikey>  (1885) 
ZNMPJFRPFVZRBX-UHFFFAOYSA-N

>  <tags>  (1885) 
fragmenstein_placed,CpKRS_FrAncestor_bulkdock_iter2

>  <ref_pdb>  (1885) 
x0421a

>  <energy_score>  (1885) 
-6.21124

>  <distance_score>  (1885) 
0.894486

>  <HIPPO Pose ID>  (1885) 
62648

>  <ref_mols>  (1885) 
x0502c

>  <smiles>  (1885) 
CC(C)n1cncc1C(=O)NC1CCC2(CC1)CC2

>  <HIPPO Compound ID>  (1885) 
30694

>  <alias>  (1885) 
ZNMPJFRPFVZRBX-UHFFFAOYSA-N-P46

>  <subsites>  (1885) 


>  <placement_batch>  (1885) 
CpKRS_FrAncestor_bulkdock_iter2

>  <name>  (1885) 
ZNMPJFRPFVZRBX-UHFFFAOYSA-N-P46

$$$$
LINQWQCUIOPCIA-UHFFFAOYSA-N-P44
     RDKit          3D

 17 18  0  0  0  0  0  0  0  0999 V2000
  -10.2860   -9.1877   46.6265 C   0  0  0  0  0  0  0  0  0  0  0  0
   -9.6318  -10.3691   45.9115 C   0  0  0  0  0  0  0  0  0  0  0  0
   -8.3804   -9.9292   45.1479 C   0  0  0  0  0  0  0  0  0  0  0  0
   -9.3660  -11.4617   46.8433 N   0  0  0  0  0  0  0  0  0  0  0  0
   -8.3674  -11.4778   47.7807 C   0  0  0  0  0  0  0  0  0  0  0  0
   -8.3681  -12.5880   48.4774 N   0  0  0  0  0  0  0  0  0  0  0  0
   -9.4063  -13.3241   47.9673 C   0  0  0  0  0  0  0  0  0  0  0  0
  -10.0692  -12.6473   46.9568 C   0  0  0  0  0  0  0  0  0  0  0  0
  -11.2629  -13.0132   46.2100 C   0  0  0  0  0  0  0  0  0  0  0  0
  -12.0641  -12.2038   45.9667 O   0  0  0  0  0  0  0  0  0  0  0  0
  -11.2015  -14.5015   45.8272 N   0  0  0  0  0  0  0  0  0  0  0  0
  -12.1656  -15.3375   45.1401 C   0  0  0  0  0  0  0  0  0  0  0  0
  -12.5822  -14.7395   43.7968 C   0  0  0  0  0  0  0  0  0  0  0  0
  -13.7022  -15.5450   43.1307 C   0  0  0  0  0  0  0  0  0  0  0  0
  -13.7887  -16.9946   43.6064 C   0  0  0  0  0  0  0  0  0  0  0  0
  -12.4125  -17.5732   43.8886 C   0  0  0  0  0  0  0  0  0  0  0  0
  -11.6345  -16.7604   44.9264 C   0  0  0  0  0  0  0  0  0  0  0  0
  1  2  1  0
  2  3  1  0
  2  4  1  0
  4  5  1  0
  5  6  2  0
  6  7  1  0
  7  8  2  0
  8  9  1  0
  9 10  2  0
  9 11  1  0
 11 12  1  0
 12 13  1  0
 13 14  1  0
 14 15  1  0
 15 16  1  0
 16 17  1  0
  8  4  1  0
 17 12  1  0
M  END
>  <inchikey>  (1886) 
LINQWQCUIOPCIA-UHFFFAOYSA-N

>  <tags>  (1886) 
fragmenstein_placed,CpKRS_FrAncestor_bulkdock_iter2

>  <ref_pdb>  (1886) 
x0421a

>  <energy_score>  (1886) 
-9.77403

>  <distance_score>  (1886) 
0.580108

>  <HIPPO Pose ID>  (1886) 
62653

>  <ref_mols>  (1886) 
x0502b

>  <smiles>  (1886) 
CC(C)n1cncc1C(=O)NC1CCCCC1

>  <HIPPO Compound ID>  (1886) 
30696

>  <alias>  (1886) 
LINQWQCUIOPCIA-UHFFFAOYSA-N-P44

>  <subsites>  (1886) 


>  <placement_batch>  (1886) 
CpKRS_FrAncestor_bulkdock_iter2

>  <name>  (1886) 
LINQWQCUIOPCIA-UHFFFAOYSA-N-P44

$$$$
NCAVIIXQRUOLFK-UHFFFAOYSA-N-P44
     RDKit          3D

 18 19  0  0  0  0  0  0  0  0999 V2000
   -9.3413  -10.7971   44.4355 C   0  0  0  0  0  0  0  0  0  0  0  0
   -9.3645  -10.2790   45.8736 C   0  0  0  0  0  0  0  0  0  0  0  0
  -10.5454   -9.3473   46.1433 C   0  0  0  0  0  0  0  0  0  0  0  0
   -9.2266  -11.3166   46.8912 N   0  0  0  0  0  0  0  0  0  0  0  0
   -8.2651  -11.2687   47.8716 C   0  0  0  0  0  0  0  0  0  0  0  0
   -8.3221  -12.3039   48.6715 N   0  0  0  0  0  0  0  0  0  0  0  0
   -9.3507  -13.0622   48.1842 C   0  0  0  0  0  0  0  0  0  0  0  0
   -9.9399  -12.4876   47.0671 C   0  0  0  0  0  0  0  0  0  0  0  0
  -11.0504  -12.9739   46.2604 C   0  0  0  0  0  0  0  0  0  0  0  0
  -11.8489  -12.2370   45.8446 O   0  0  0  0  0  0  0  0  0  0  0  0
  -10.9046  -14.4918   46.0757 N   0  0  0  0  0  0  0  0  0  0  0  0
  -11.6596  -15.4157   45.2586 C   0  0  0  0  0  0  0  0  0  0  0  0
  -13.1166  -15.5539   45.7239 C   0  0  0  0  0  0  0  0  0  0  0  0
  -14.1231  -15.9529   44.6381 C   0  0  0  0  0  0  0  0  0  0  0  0
  -13.8352  -17.2540   43.8942 C   0  0  0  0  0  0  0  0  0  0  0  0
  -12.4188  -17.4584   43.3668 C   0  0  0  0  0  0  0  0  0  0  0  0
  -11.7273  -16.2133   42.8149 C   0  0  0  0  0  0  0  0  0  0  0  0
  -11.5463  -15.0352   43.7794 C   0  0  0  0  0  0  0  0  0  0  0  0
  1  2  1  0
  2  3  1  0
  2  4  1  0
  4  5  1  0
  5  6  2  0
  6  7  1  0
  7  8  2  0
  8  9  1  0
  9 10  2  0
  9 11  1  0
 11 12  1  0
 12 13  1  0
 13 14  1  0
 14 15  1  0
 15 16  1  0
 16 17  1  0
 17 18  1  0
  8  4  1  0
 18 12  1  0
M  END
>  <inchikey>  (1887) 
NCAVIIXQRUOLFK-UHFFFAOYSA-N

>  <tags>  (1887) 
fragmenstein_placed,CpKRS_FrAncestor_bulkdock_iter2

>  <ref_pdb>  (1887) 
x0421a

>  <energy_score>  (1887) 
-15.683458

>  <distance_score>  (1887) 
0.710507

>  <HIPPO Pose ID>  (1887) 
62656

>  <ref_mols>  (1887) 
x0502b

>  <smiles>  (1887) 
CC(C)n1cncc1C(=O)NC1CCCCCC1

>  <HIPPO Compound ID>  (1887) 
30697

>  <alias>  (1887) 
NCAVIIXQRUOLFK-UHFFFAOYSA-N-P44

>  <subsites>  (1887) 


>  <placement_batch>  (1887) 
CpKRS_FrAncestor_bulkdock_iter2

>  <name>  (1887) 
NCAVIIXQRUOLFK-UHFFFAOYSA-N-P44

$$$$
JTTZNRFEZLRDAQ-XFKKCKKNSA-N-P44
     RDKit          3D

 18 20  0  0  0  0  0  0  0  0999 V2000
   -9.2272  -10.9689   44.3043 C   0  0  0  0  0  0  0  0  0  0  0  0
   -9.7163  -10.4689   45.6633 C   0  0  0  0  0  0  0  0  0  0  0  0
   -9.2030   -9.0478   45.9248 C   0  0  0  0  0  0  0  0  0  0  0  0
   -9.3891  -11.4213   46.7230 N   0  0  0  0  0  0  0  0  0  0  0  0
   -8.3032  -11.3580   47.5556 C   0  0  0  0  0  0  0  0  0  0  0  0
   -8.2825  -12.3469   48.4155 N   0  0  0  0  0  0  0  0  0  0  0  0
   -9.3707  -13.1125   48.0947 C   0  0  0  0  0  0  0  0  0  0  0  0
  -10.0869  -12.5789   47.0340 C   0  0  0  0  0  0  0  0  0  0  0  0
  -11.3060  -13.0562   46.3881 C   0  0  0  0  0  0  0  0  0  0  0  0
  -12.1100  -12.2971   46.0255 O   0  0  0  0  0  0  0  0  0  0  0  0
  -11.2965  -14.5913   46.3473 N   0  0  0  0  0  0  0  0  0  0  0  0
  -12.2330  -15.5176   45.7654 C   0  0  2  0  0  0  0  0  0  0  0  0
  -12.0183  -16.9391   46.2599 C   0  0  0  0  0  0  0  0  0  0  0  0
  -12.4328  -17.8494   45.1143 C   0  0  0  0  0  0  0  0  0  0  0  0
  -12.2905  -17.0290   43.8464 C   0  0  1  0  0  0  0  0  0  0  0  0
  -13.6126  -16.4992   43.2431 C   0  0  0  0  0  0  0  0  0  0  0  0
  -13.0191  -15.0841   43.2743 C   0  0  0  0  0  0  0  0  0  0  0  0
  -11.9459  -15.5815   44.2675 C   0  0  1  0  0  0  0  0  0  0  0  0
  1  2  1  0
  2  3  1  0
  2  4  1  0
  4  5  1  0
  5  6  2  0
  6  7  1  0
  7  8  2  0
  8  9  1  0
  9 10  2  0
  9 11  1  0
 12 11  1  1
 12 13  1  0
 13 14  1  0
 15 14  1  1
 15 16  1  0
 16 17  1  0
 18 17  1  6
  8  4  1  0
 18 12  1  0
 18 15  1  0
M  END
>  <inchikey>  (1888) 
JTTZNRFEZLRDAQ-UHFFFAOYSA-N

>  <tags>  (1888) 
fragmenstein_placed,CpKRS_FrAncestor_bulkdock_iter2

>  <ref_pdb>  (1888) 
x0421a

>  <energy_score>  (1888) 
-12.643929

>  <distance_score>  (1888) 
0.779198

>  <HIPPO Pose ID>  (1888) 
62659

>  <ref_mols>  (1888) 
x0502b

>  <smiles>  (1888) 
CC(C)n1cncc1C(=O)NC1CC[C@H]2CC[C@@H]12

>  <HIPPO Compound ID>  (1888) 
30698

>  <alias>  (1888) 
JTTZNRFEZLRDAQ-XFKKCKKNSA-N-P44

>  <subsites>  (1888) 


>  <placement_batch>  (1888) 
CpKRS_FrAncestor_bulkdock_iter2

>  <name>  (1888) 
JTTZNRFEZLRDAQ-XFKKCKKNSA-N-P44

$$$$
YVFIDEPAKJUTFU-ZSBIGDGJSA-N-P44
     RDKit          3D

 18 20  0  0  0  0  0  0  0  0999 V2000
  -10.1156   -8.9617   46.7851 C   0  0  0  0  0  0  0  0  0  0  0  0
   -9.4002  -10.1109   46.0761 C   0  0  0  0  0  0  0  0  0  0  0  0
   -8.1264   -9.6179   45.3839 C   0  0  0  0  0  0  0  0  0  0  0  0
   -9.1583  -11.2187   46.9979 N   0  0  0  0  0  0  0  0  0  0  0  0
   -8.1438  -11.2788   47.9159 C   0  0  0  0  0  0  0  0  0  0  0  0
   -8.1746  -12.3904   48.6097 N   0  0  0  0  0  0  0  0  0  0  0  0
   -9.2591  -13.0750   48.1294 C   0  0  0  0  0  0  0  0  0  0  0  0
   -9.9095  -12.3740   47.1265 C   0  0  0  0  0  0  0  0  0  0  0  0
  -11.1187  -12.6989   46.3828 C   0  0  0  0  0  0  0  0  0  0  0  0
  -11.8460  -11.8532   46.0517 O   0  0  0  0  0  0  0  0  0  0  0  0
  -11.1736  -14.2124   46.1335 N   0  0  0  0  0  0  0  0  0  0  0  0
  -12.0851  -14.9977   45.3428 C   0  0  2  0  0  0  0  0  0  0  0  0
  -12.0223  -16.4887   45.6616 C   0  0  0  0  0  0  0  0  0  0  0  0
  -12.3372  -17.2178   44.3557 C   0  0  1  0  0  0  0  0  0  0  0  0
  -13.8040  -17.5098   43.9802 C   0  0  0  0  0  0  0  0  0  0  0  0
  -13.8258  -16.2469   43.1123 C   0  0  0  0  0  0  0  0  0  0  0  0
  -12.2880  -16.1637   43.2344 C   0  0  1  0  0  0  0  0  0  0  0  0
  -11.7437  -14.8925   43.8573 C   0  0  0  0  0  0  0  0  0  0  0  0
  1  2  1  0
  2  3  1  0
  2  4  1  0
  4  5  1  0
  5  6  2  0
  6  7  1  0
  7  8  2  0
  8  9  1  0
  9 10  2  0
  9 11  1  0
 12 11  1  1
 12 13  1  0
 14 13  1  1
 14 15  1  0
 15 16  1  0
 17 16  1  1
 17 18  1  0
  8  4  1  0
 18 12  1  0
 17 14  1  0
M  END
>  <inchikey>  (1889) 
YVFIDEPAKJUTFU-UHFFFAOYSA-N

>  <tags>  (1889) 
fragmenstein_placed,CpKRS_FrAncestor_bulkdock_iter2

>  <ref_pdb>  (1889) 
x0421a

>  <energy_score>  (1889) 
-7.710428

>  <distance_score>  (1889) 
0.65647

>  <HIPPO Pose ID>  (1889) 
62662

>  <ref_mols>  (1889) 
x0502b

>  <smiles>  (1889) 
CC(C)n1cncc1C(=O)N[C@@H]1C[C@H]2CC[C@H]2C1

>  <HIPPO Compound ID>  (1889) 
30699

>  <alias>  (1889) 
YVFIDEPAKJUTFU-ZSBIGDGJSA-N-P44

>  <subsites>  (1889) 


>  <placement_batch>  (1889) 
CpKRS_FrAncestor_bulkdock_iter2

>  <name>  (1889) 
YVFIDEPAKJUTFU-ZSBIGDGJSA-N-P44

$$$$
GNSUXIYVISVSED-UHFFFAOYSA-N-P54
     RDKit          3D

 16 17  0  0  0  0  0  0  0  0999 V2000
    6.3418  -39.1355    8.3726 C   0  0  0  0  0  0  0  0  0  0  0  0
    6.6835  -37.8843    7.5810 C   0  0  0  0  0  0  0  0  0  0  0  0
    5.5090  -37.3966    6.7409 C   0  0  0  0  0  0  0  0  0  0  0  0
    7.2208  -36.7867    8.3958 N   0  0  0  0  0  0  0  0  0  0  0  0
    6.5561  -36.2423    9.8249 S   0  0  0  0  0  0  0  0  0  0  0  0
    7.1486  -34.9462   10.0919 O   0  0  0  0  0  0  0  0  0  0  0  0
    5.1193  -36.3939    9.7743 O   0  0  0  0  0  0  0  0  0  0  0  0
    7.2021  -37.3546   11.0439 C   0  0  0  0  0  0  0  0  0  0  0  0
    6.3252  -38.1916   11.7500 C   0  0  0  0  0  0  0  0  0  0  0  0
    6.8019  -38.9953   12.7945 C   0  0  0  0  0  0  0  0  0  0  0  0
    8.1491  -38.9608   13.1548 C   0  0  0  0  0  0  0  0  0  0  0  0
    9.0057  -38.1303   12.4499 C   0  0  0  0  0  0  0  0  0  0  0  0
    8.5460  -37.3294   11.3969 C   0  0  0  0  0  0  0  0  0  0  0  0
    9.6606  -36.4742   10.8753 C   0  0  0  0  0  0  0  0  0  0  0  0
   10.8931  -37.2051   11.4262 C   0  0  0  0  0  0  0  0  0  0  0  0
   10.4540  -37.8774   12.7318 C   0  0  0  0  0  0  0  0  0  0  0  0
  1  2  1  0
  2  3  1  0
  2  4  1  0
  4  5  1  0
  5  6  2  0
  5  7  2  0
  5  8  1  0
  8  9  2  0
  9 10  1  0
 10 11  2  0
 11 12  1  0
 12 13  2  0
 13 14  1  0
 14 15  1  0
 15 16  1  0
 13  8  1  0
 16 12  1  0
M  END
>  <inchikey>  (1890) 
GNSUXIYVISVSED-UHFFFAOYSA-N

>  <tags>  (1890) 
fragmenstein_placed,CpKRS_FrAncestor_bulkdock_iter2

>  <ref_pdb>  (1890) 
x0421a

>  <energy_score>  (1890) 
-41.187327

>  <distance_score>  (1890) 
0.258887

>  <HIPPO Pose ID>  (1890) 
62720

>  <ref_mols>  (1890) 
x0639c

>  <smiles>  (1890) 
CC(C)NS(=O)(=O)c1cccc2c1CCC2

>  <HIPPO Compound ID>  (1890) 
30715

>  <alias>  (1890) 
GNSUXIYVISVSED-UHFFFAOYSA-N-P54

>  <subsites>  (1890) 


>  <placement_batch>  (1890) 
CpKRS_FrAncestor_bulkdock_iter2

>  <name>  (1890) 
GNSUXIYVISVSED-UHFFFAOYSA-N-P54

$$$$
PNDONOAFVGBKSA-UHFFFAOYSA-N-P54
     RDKit          3D

 16 17  0  0  0  0  0  0  0  0999 V2000
    8.8977  -39.6881    8.0942 C   0  0  0  0  0  0  0  0  0  0  0  0
    7.9553  -38.9517    7.9835 C   0  0  0  0  0  0  0  0  0  0  0  0
    6.8079  -38.0468    7.8678 C   0  0  0  0  0  0  0  0  0  0  0  0
    7.1769  -36.7342    8.3600 N   0  0  0  0  0  0  0  0  0  0  0  0
    6.5738  -36.1799    9.8009 S   0  0  0  0  0  0  0  0  0  0  0  0
    5.1326  -36.3037    9.7608 O   0  0  0  0  0  0  0  0  0  0  0  0
    7.1965  -34.9017   10.0779 O   0  0  0  0  0  0  0  0  0  0  0  0
    7.1922  -37.3379   10.9929 C   0  0  0  0  0  0  0  0  0  0  0  0
    6.3007  -38.2093   11.6352 C   0  0  0  0  0  0  0  0  0  0  0  0
    6.7483  -39.0381   12.6736 C   0  0  0  0  0  0  0  0  0  0  0  0
    8.0807  -39.0010   13.0852 C   0  0  0  0  0  0  0  0  0  0  0  0
    8.9545  -38.1458   12.4331 C   0  0  0  0  0  0  0  0  0  0  0  0
    8.5237  -37.3159   11.3903 C   0  0  0  0  0  0  0  0  0  0  0  0
    9.6512  -36.4440   10.9274 C   0  0  0  0  0  0  0  0  0  0  0  0
   10.8684  -37.1894   11.4920 C   0  0  0  0  0  0  0  0  0  0  0  0
   10.3928  -37.8969   12.7659 C   0  0  0  0  0  0  0  0  0  0  0  0
  1  2  3  0
  2  3  1  0
  3  4  1  0
  4  5  1  0
  5  6  2  0
  5  7  2  0
  5  8  1  0
  8  9  2  0
  9 10  1  0
 10 11  2  0
 11 12  1  0
 12 13  2  0
 13 14  1  0
 14 15  1  0
 15 16  1  0
 13  8  1  0
 16 12  1  0
M  END
>  <inchikey>  (1891) 
PNDONOAFVGBKSA-UHFFFAOYSA-N

>  <tags>  (1891) 
fragmenstein_placed,CpKRS_FrAncestor_bulkdock_iter2

>  <ref_pdb>  (1891) 
x0421a

>  <energy_score>  (1891) 
-26.795916

>  <distance_score>  (1891) 
0.233144

>  <HIPPO Pose ID>  (1891) 
62723

>  <ref_mols>  (1891) 
x0639c

>  <smiles>  (1891) 
C#CCNS(=O)(=O)c1cccc2c1CCC2

>  <HIPPO Compound ID>  (1891) 
30716

>  <alias>  (1891) 
PNDONOAFVGBKSA-UHFFFAOYSA-N-P54

>  <subsites>  (1891) 


>  <placement_batch>  (1891) 
CpKRS_FrAncestor_bulkdock_iter2

>  <name>  (1891) 
PNDONOAFVGBKSA-UHFFFAOYSA-N-P54

$$$$
DUGKDIPNYOGIAE-UHFFFAOYSA-N-P22
     RDKit          3D

 18 19  0  0  0  0  0  0  0  0999 V2000
   21.2533    7.4261   21.9324 C   0  0  0  0  0  0  0  0  0  0  0  0
   21.6773    8.8806   21.8814 C   0  0  0  0  0  0  0  0  0  0  0  0
   23.1723    9.0079   21.6363 C   0  0  0  0  0  0  0  0  0  0  0  0
   21.1003    9.5963   23.0363 N   0  0  0  0  0  0  0  0  0  0  0  0
   21.9898   10.1020   24.3445 S   0  0  0  0  0  0  0  0  0  0  0  0
   21.0310   10.4157   25.3808 O   0  0  0  0  0  0  0  0  0  0  0  0
   22.9285   11.0873   23.8687 O   0  0  0  0  0  0  0  0  0  0  0  0
   22.7877    8.7021   24.7234 N   0  0  0  0  0  0  0  0  0  0  0  0
   22.0857    7.5746   25.3534 C   0  0  0  0  0  0  0  0  0  0  0  0
   22.8362    6.2976   24.9509 C   0  0  0  0  0  0  0  0  0  0  0  0
   24.1863    6.3302   25.5913 C   0  0  0  0  0  0  0  0  0  0  0  0
   24.7605    5.2115   26.1895 C   0  0  0  0  0  0  0  0  0  0  0  0
   24.0958    4.0499   26.2372 F   0  0  0  0  0  0  0  0  0  0  0  0
   26.0167    5.2894   26.7745 C   0  0  0  0  0  0  0  0  0  0  0  0
   26.7197    6.4919   26.7397 C   0  0  0  0  0  0  0  0  0  0  0  0
   26.1580    7.6141   26.1295 C   0  0  0  0  0  0  0  0  0  0  0  0
   24.8763    7.5512   25.5733 C   0  0  0  0  0  0  0  0  0  0  0  0
   24.2426    8.7882   24.9656 C   0  0  0  0  0  0  0  0  0  0  0  0
  1  2  1  0
  2  3  1  0
  2  4  1  0
  4  5  1  0
  5  6  2  0
  5  7  2  0
  5  8  1  0
  8  9  1  0
  9 10  1  0
 10 11  1  0
 11 12  2  0
 12 13  1  0
 12 14  1  0
 14 15  2  0
 15 16  1  0
 16 17  2  0
 17 18  1  0
 18  8  1  0
 17 11  1  0
M  END
>  <inchikey>  (1892) 
DUGKDIPNYOGIAE-UHFFFAOYSA-N

>  <tags>  (1892) 
fragmenstein_placed,CpKRS_FrAncestor_bulkdock_iter2

>  <ref_pdb>  (1892) 
x0421a

>  <energy_score>  (1892) 
-30.588432

>  <distance_score>  (1892) 
0.827298

>  <HIPPO Pose ID>  (1892) 
62728

>  <ref_mols>  (1892) 
x0472b

>  <smiles>  (1892) 
CC(C)NS(=O)(=O)N1CCc2c(F)cccc2C1

>  <HIPPO Compound ID>  (1892) 
30718

>  <alias>  (1892) 
DUGKDIPNYOGIAE-UHFFFAOYSA-N-P22

>  <subsites>  (1892) 


>  <placement_batch>  (1892) 
CpKRS_FrAncestor_bulkdock_iter2

>  <name>  (1892) 
DUGKDIPNYOGIAE-UHFFFAOYSA-N-P22

$$$$
ALLXWTQRMBBQAL-UHFFFAOYSA-N-P54
     RDKit          3D

 13 13  0  0  0  0  0  0  0  0999 V2000
    7.8894  -39.0017    8.0933 C   0  0  0  0  0  0  0  0  0  0  0  0
    6.8109  -38.0070    7.6846 C   0  0  0  0  0  0  0  0  0  0  0  0
    5.4129  -38.5641    7.9023 C   0  0  0  0  0  0  0  0  0  0  0  0
    7.0419  -36.6974    8.3138 N   0  0  0  0  0  0  0  0  0  0  0  0
    6.5308  -36.2563    9.8360 S   0  0  0  0  0  0  0  0  0  0  0  0
    5.1106  -36.4852    9.9696 O   0  0  0  0  0  0  0  0  0  0  0  0
    7.0969  -34.9534   10.1158 O   0  0  0  0  0  0  0  0  0  0  0  0
    7.2440  -37.2676   11.0125 C   0  0  0  0  0  0  0  0  0  0  0  0
    6.5693  -38.1577   11.8898 C   0  0  0  0  0  0  0  0  0  0  0  0
    7.5457  -38.7045   12.6877 C   0  0  0  0  0  0  0  0  0  0  0  0
    8.7685  -38.2258   12.3334 O   0  0  0  0  0  0  0  0  0  0  0  0
    8.5831  -37.3273   11.3214 C   0  0  0  0  0  0  0  0  0  0  0  0
    9.8888  -36.4620   10.6077 Cl  0  0  0  0  0  0  0  0  0  0  0  0
  1  2  1  0
  2  3  1  0
  2  4  1  0
  4  5  1  0
  5  6  2  0
  5  7  2  0
  5  8  1  0
  8  9  1  0
  9 10  2  0
 10 11  1  0
 11 12  1  0
 12 13  1  0
 12  8  2  0
M  END
>  <inchikey>  (1893) 
ALLXWTQRMBBQAL-UHFFFAOYSA-N

>  <tags>  (1893) 
fragmenstein_placed,CpKRS_FrAncestor_bulkdock_iter2

>  <ref_pdb>  (1893) 
x0421a

>  <energy_score>  (1893) 
-31.12158

>  <distance_score>  (1893) 
0.429713

>  <HIPPO Pose ID>  (1893) 
62732

>  <ref_mols>  (1893) 
x0639c

>  <smiles>  (1893) 
CC(C)NS(=O)(=O)c1ccoc1Cl

>  <HIPPO Compound ID>  (1893) 
30719

>  <alias>  (1893) 
ALLXWTQRMBBQAL-UHFFFAOYSA-N-P54

>  <subsites>  (1893) 


>  <placement_batch>  (1893) 
CpKRS_FrAncestor_bulkdock_iter2

>  <name>  (1893) 
ALLXWTQRMBBQAL-UHFFFAOYSA-N-P54

$$$$
VVDVBOIXRZBESW-UHFFFAOYSA-N-P54
     RDKit          3D

 13 13  0  0  0  0  0  0  0  0999 V2000
    8.1755  -39.9620    8.6183 C   0  0  0  0  0  0  0  0  0  0  0  0
    7.4934  -39.0570    8.2200 C   0  0  0  0  0  0  0  0  0  0  0  0
    6.6668  -37.9467    7.7428 C   0  0  0  0  0  0  0  0  0  0  0  0
    7.1355  -36.6744    8.2965 N   0  0  0  0  0  0  0  0  0  0  0  0
    6.5754  -36.2511    9.8150 S   0  0  0  0  0  0  0  0  0  0  0  0
    7.0861  -34.9322   10.1214 O   0  0  0  0  0  0  0  0  0  0  0  0
    5.1550  -36.5182    9.8693 O   0  0  0  0  0  0  0  0  0  0  0  0
    7.2621  -37.2632   11.0033 C   0  0  0  0  0  0  0  0  0  0  0  0
    6.5721  -38.1590   11.8622 C   0  0  0  0  0  0  0  0  0  0  0  0
    7.5339  -38.7069   12.6770 C   0  0  0  0  0  0  0  0  0  0  0  0
    8.7620  -38.2220   12.3513 O   0  0  0  0  0  0  0  0  0  0  0  0
    8.5954  -37.3224   11.3363 C   0  0  0  0  0  0  0  0  0  0  0  0
    9.9113  -36.4441   10.6591 Cl  0  0  0  0  0  0  0  0  0  0  0  0
  1  2  3  0
  2  3  1  0
  3  4  1  0
  4  5  1  0
  5  6  2  0
  5  7  2  0
  5  8  1  0
  8  9  1  0
  9 10  2  0
 10 11  1  0
 11 12  1  0
 12 13  1  0
 12  8  2  0
M  END
>  <inchikey>  (1894) 
VVDVBOIXRZBESW-UHFFFAOYSA-N

>  <tags>  (1894) 
fragmenstein_placed,CpKRS_FrAncestor_bulkdock_iter2

>  <ref_pdb>  (1894) 
x0421a

>  <energy_score>  (1894) 
-30.683954

>  <distance_score>  (1894) 
0.429046

>  <HIPPO Pose ID>  (1894) 
62735

>  <ref_mols>  (1894) 
x0639c

>  <smiles>  (1894) 
C#CCNS(=O)(=O)c1ccoc1Cl

>  <HIPPO Compound ID>  (1894) 
30720

>  <alias>  (1894) 
VVDVBOIXRZBESW-UHFFFAOYSA-N-P54

>  <subsites>  (1894) 


>  <placement_batch>  (1894) 
CpKRS_FrAncestor_bulkdock_iter2

>  <name>  (1894) 
VVDVBOIXRZBESW-UHFFFAOYSA-N-P54

$$$$
SNVOWEIKGZTTCF-UHFFFAOYSA-N-P54
     RDKit          3D

 13 13  0  0  0  0  0  0  0  0999 V2000
    7.8537  -39.0126    8.0989 C   0  0  0  0  0  0  0  0  0  0  0  0
    6.7998  -37.9987    7.6745 C   0  0  0  0  0  0  0  0  0  0  0  0
    5.3891  -38.5335    7.8648 C   0  0  0  0  0  0  0  0  0  0  0  0
    7.0393  -36.6924    8.3082 N   0  0  0  0  0  0  0  0  0  0  0  0
    6.5167  -36.2508    9.8274 S   0  0  0  0  0  0  0  0  0  0  0  0
    5.0957  -36.4815    9.9502 O   0  0  0  0  0  0  0  0  0  0  0  0
    7.0766  -34.9464   10.1137 O   0  0  0  0  0  0  0  0  0  0  0  0
    7.2383  -37.2767   11.0177 C   0  0  0  0  0  0  0  0  0  0  0  0
    6.4807  -38.1525   11.8647 C   0  0  0  0  0  0  0  0  0  0  0  0
    7.2805  -38.8249   12.7632 C   0  0  0  0  0  0  0  0  0  0  0  0
    8.9339  -38.4277   12.5638 S   0  0  0  0  0  0  0  0  0  0  0  0
    8.5805  -37.3349   11.3097 C   0  0  0  0  0  0  0  0  0  0  0  0
    9.9797  -36.3399   10.4585 Br  0  0  0  0  0  0  0  0  0  0  0  0
  1  2  1  0
  2  3  1  0
  2  4  1  0
  4  5  1  0
  5  6  2  0
  5  7  2  0
  5  8  1  0
  8  9  1  0
  9 10  2  0
 10 11  1  0
 11 12  1  0
 12 13  1  0
 12  8  2  0
M  END
>  <inchikey>  (1895) 
SNVOWEIKGZTTCF-UHFFFAOYSA-N

>  <tags>  (1895) 
fragmenstein_placed,CpKRS_FrAncestor_bulkdock_iter2

>  <ref_pdb>  (1895) 
x0421a

>  <energy_score>  (1895) 
-36.042499

>  <distance_score>  (1895) 
0.508396

>  <HIPPO Pose ID>  (1895) 
62738

>  <ref_mols>  (1895) 
x0639c

>  <smiles>  (1895) 
CC(C)NS(=O)(=O)c1ccsc1Br

>  <HIPPO Compound ID>  (1895) 
30721

>  <alias>  (1895) 
SNVOWEIKGZTTCF-UHFFFAOYSA-N-P54

>  <subsites>  (1895) 


>  <placement_batch>  (1895) 
CpKRS_FrAncestor_bulkdock_iter2

>  <name>  (1895) 
SNVOWEIKGZTTCF-UHFFFAOYSA-N-P54

$$$$
LKNMXUBYOJPRCL-UHFFFAOYSA-N-P54
     RDKit          3D

 13 13  0  0  0  0  0  0  0  0999 V2000
    8.0715  -38.5357    5.5730 C   0  0  0  0  0  0  0  0  0  0  0  0
    7.4389  -38.2706    6.5591 C   0  0  0  0  0  0  0  0  0  0  0  0
    6.6702  -37.9424    7.7653 C   0  0  0  0  0  0  0  0  0  0  0  0
    7.1603  -36.6728    8.3020 N   0  0  0  0  0  0  0  0  0  0  0  0
    6.5608  -36.2395    9.8001 S   0  0  0  0  0  0  0  0  0  0  0  0
    7.0526  -34.9186   10.1238 O   0  0  0  0  0  0  0  0  0  0  0  0
    5.1452  -36.5339    9.8244 O   0  0  0  0  0  0  0  0  0  0  0  0
    7.2537  -37.2701   11.0014 C   0  0  0  0  0  0  0  0  0  0  0  0
    6.4798  -38.1419   11.8370 C   0  0  0  0  0  0  0  0  0  0  0  0
    7.2653  -38.8210   12.7435 C   0  0  0  0  0  0  0  0  0  0  0  0
    8.9237  -38.4341   12.5640 S   0  0  0  0  0  0  0  0  0  0  0  0
    8.5919  -37.3377   11.3073 C   0  0  0  0  0  0  0  0  0  0  0  0
   10.0023  -36.3398   10.4799 Br  0  0  0  0  0  0  0  0  0  0  0  0
  1  2  3  0
  2  3  1  0
  3  4  1  0
  4  5  1  0
  5  6  2  0
  5  7  2  0
  5  8  1  0
  8  9  1  0
  9 10  2  0
 10 11  1  0
 11 12  1  0
 12 13  1  0
 12  8  2  0
M  END
>  <inchikey>  (1896) 
LKNMXUBYOJPRCL-UHFFFAOYSA-N

>  <tags>  (1896) 
fragmenstein_placed,CpKRS_FrAncestor_bulkdock_iter2

>  <ref_pdb>  (1896) 
x0421a

>  <energy_score>  (1896) 
-34.427694

>  <distance_score>  (1896) 
0.510226

>  <HIPPO Pose ID>  (1896) 
62741

>  <ref_mols>  (1896) 
x0639c

>  <smiles>  (1896) 
C#CCNS(=O)(=O)c1ccsc1Br

>  <HIPPO Compound ID>  (1896) 
30722

>  <alias>  (1896) 
LKNMXUBYOJPRCL-UHFFFAOYSA-N-P54

>  <subsites>  (1896) 


>  <placement_batch>  (1896) 
CpKRS_FrAncestor_bulkdock_iter2

>  <name>  (1896) 
LKNMXUBYOJPRCL-UHFFFAOYSA-N-P54

$$$$
NIVFUYYGSGLTOD-UHFFFAOYSA-N-P54
     RDKit          3D

 13 13  0  0  0  0  0  0  0  0999 V2000
    7.9991  -38.8924    7.7932 C   0  0  0  0  0  0  0  0  0  0  0  0
    6.7699  -37.9925    7.7568 C   0  0  0  0  0  0  0  0  0  0  0  0
    6.2859  -37.7972    6.3236 C   0  0  0  0  0  0  0  0  0  0  0  0
    7.1081  -36.6724    8.3042 N   0  0  0  0  0  0  0  0  0  0  0  0
    6.5504  -36.2287    9.8117 S   0  0  0  0  0  0  0  0  0  0  0  0
    5.1341  -36.5060    9.8939 O   0  0  0  0  0  0  0  0  0  0  0  0
    7.0816  -34.9188   10.1198 O   0  0  0  0  0  0  0  0  0  0  0  0
    7.2676  -37.2552   10.9985 C   0  0  0  0  0  0  0  0  0  0  0  0
    6.5303  -38.1492   11.8411 C   0  0  0  0  0  0  0  0  0  0  0  0
    7.3505  -38.8064   12.7341 C   0  0  0  0  0  0  0  0  0  0  0  0
    8.9967  -38.3714   12.5266 S   0  0  0  0  0  0  0  0  0  0  0  0
    8.6090  -37.2863   11.2820 C   0  0  0  0  0  0  0  0  0  0  0  0
    9.8853  -36.3949   10.5482 Cl  0  0  0  0  0  0  0  0  0  0  0  0
  1  2  1  0
  2  3  1  0
  2  4  1  0
  4  5  1  0
  5  6  2  0
  5  7  2  0
  5  8  1  0
  8  9  1  0
  9 10  2  0
 10 11  1  0
 11 12  1  0
 12 13  1  0
 12  8  2  0
M  END
>  <inchikey>  (1897) 
NIVFUYYGSGLTOD-UHFFFAOYSA-N

>  <tags>  (1897) 
fragmenstein_placed,CpKRS_FrAncestor_bulkdock_iter2

>  <ref_pdb>  (1897) 
x0421a

>  <energy_score>  (1897) 
-38.892702

>  <distance_score>  (1897) 
0.481687

>  <HIPPO Pose ID>  (1897) 
62744

>  <ref_mols>  (1897) 
x0639c

>  <smiles>  (1897) 
CC(C)NS(=O)(=O)c1ccsc1Cl

>  <HIPPO Compound ID>  (1897) 
30723

>  <alias>  (1897) 
NIVFUYYGSGLTOD-UHFFFAOYSA-N-P54

>  <subsites>  (1897) 


>  <placement_batch>  (1897) 
CpKRS_FrAncestor_bulkdock_iter2

>  <name>  (1897) 
NIVFUYYGSGLTOD-UHFFFAOYSA-N-P54

$$$$
ZNOCMNYPPOMTJM-UHFFFAOYSA-N-P54
     RDKit          3D

 13 13  0  0  0  0  0  0  0  0999 V2000
    7.8726  -38.3703    5.4135 C   0  0  0  0  0  0  0  0  0  0  0  0
    7.3801  -38.2035    6.4963 C   0  0  0  0  0  0  0  0  0  0  0  0
    6.7826  -37.9950    7.8206 C   0  0  0  0  0  0  0  0  0  0  0  0
    7.1400  -36.6606    8.2950 N   0  0  0  0  0  0  0  0  0  0  0  0
    6.5506  -36.2264    9.7961 S   0  0  0  0  0  0  0  0  0  0  0  0
    7.0616  -34.9143   10.1256 O   0  0  0  0  0  0  0  0  0  0  0  0
    5.1390  -36.5297    9.8576 O   0  0  0  0  0  0  0  0  0  0  0  0
    7.2649  -37.2524   10.9881 C   0  0  0  0  0  0  0  0  0  0  0  0
    6.5248  -38.1318   11.8434 C   0  0  0  0  0  0  0  0  0  0  0  0
    7.3455  -38.7909   12.7347 C   0  0  0  0  0  0  0  0  0  0  0  0
    8.9944  -38.3736   12.5116 S   0  0  0  0  0  0  0  0  0  0  0  0
    8.6079  -37.2946   11.2618 C   0  0  0  0  0  0  0  0  0  0  0  0
    9.8845  -36.4166   10.5134 Cl  0  0  0  0  0  0  0  0  0  0  0  0
  1  2  3  0
  2  3  1  0
  3  4  1  0
  4  5  1  0
  5  6  2  0
  5  7  2  0
  5  8  1  0
  8  9  1  0
  9 10  2  0
 10 11  1  0
 11 12  1  0
 12 13  1  0
 12  8  2  0
M  END
>  <inchikey>  (1898) 
ZNOCMNYPPOMTJM-UHFFFAOYSA-N

>  <tags>  (1898) 
fragmenstein_placed,CpKRS_FrAncestor_bulkdock_iter2

>  <ref_pdb>  (1898) 
x0421a

>  <energy_score>  (1898) 
-37.822629

>  <distance_score>  (1898) 
0.48073

>  <HIPPO Pose ID>  (1898) 
62747

>  <ref_mols>  (1898) 
x0639c

>  <smiles>  (1898) 
C#CCNS(=O)(=O)c1ccsc1Cl

>  <HIPPO Compound ID>  (1898) 
30724

>  <alias>  (1898) 
ZNOCMNYPPOMTJM-UHFFFAOYSA-N-P54

>  <subsites>  (1898) 


>  <placement_batch>  (1898) 
CpKRS_FrAncestor_bulkdock_iter2

>  <name>  (1898) 
ZNOCMNYPPOMTJM-UHFFFAOYSA-N-P54

$$$$
IFVFCVURSMPXFP-UHFFFAOYSA-N-P54
     RDKit          3D

 13 13  0  0  0  0  0  0  0  0999 V2000
    8.6414  -39.7075    8.2412 C   0  0  0  0  0  0  0  0  0  0  0  0
    7.7382  -38.9408    8.0437 C   0  0  0  0  0  0  0  0  0  0  0  0
    6.6367  -38.0003    7.8186 C   0  0  0  0  0  0  0  0  0  0  0  0
    7.0185  -36.6664    8.2668 N   0  0  0  0  0  0  0  0  0  0  0  0
    6.5583  -36.1945    9.7968 S   0  0  0  0  0  0  0  0  0  0  0  0
    7.1731  -34.9129   10.0720 O   0  0  0  0  0  0  0  0  0  0  0  0
    5.1355  -36.3988    9.9473 O   0  0  0  0  0  0  0  0  0  0  0  0
    7.2902  -37.2551   10.9644 C   0  0  0  0  0  0  0  0  0  0  0  0
    6.5415  -38.1740   11.7655 C   0  0  0  0  0  0  0  0  0  0  0  0
    7.3439  -38.8533   12.6533 C   0  0  0  0  0  0  0  0  0  0  0  0
    8.9878  -38.4127   12.4964 S   0  0  0  0  0  0  0  0  0  0  0  0
    8.6434  -37.2787   11.2575 C   0  0  0  0  0  0  0  0  0  0  0  0
    9.7550  -36.4617   10.6865 C   0  0  0  0  0  0  0  0  0  0  0  0
  1  2  3  0
  2  3  1  0
  3  4  1  0
  4  5  1  0
  5  6  2  0
  5  7  2  0
  5  8  1  0
  8  9  1  0
  9 10  2  0
 10 11  1  0
 11 12  1  0
 12 13  1  0
 12  8  2  0
M  END
>  <inchikey>  (1899) 
IFVFCVURSMPXFP-UHFFFAOYSA-N

>  <tags>  (1899) 
fragmenstein_placed,CpKRS_FrAncestor_bulkdock_iter2

>  <ref_pdb>  (1899) 
x0421a

>  <energy_score>  (1899) 
-39.907924

>  <distance_score>  (1899) 
0.486173

>  <HIPPO Pose ID>  (1899) 
62750

>  <ref_mols>  (1899) 
x0639c

>  <smiles>  (1899) 
C#CCNS(=O)(=O)c1ccsc1C

>  <HIPPO Compound ID>  (1899) 
30725

>  <alias>  (1899) 
IFVFCVURSMPXFP-UHFFFAOYSA-N-P54

>  <subsites>  (1899) 


>  <placement_batch>  (1899) 
CpKRS_FrAncestor_bulkdock_iter2

>  <name>  (1899) 
IFVFCVURSMPXFP-UHFFFAOYSA-N-P54

$$$$
DGYXCVPHUPZYNT-UHFFFAOYSA-N-P54
     RDKit          3D

 13 13  0  0  0  0  0  0  0  0999 V2000
    6.9476  -39.1622    8.2902 C   0  0  0  0  0  0  0  0  0  0  0  0
    6.6128  -37.8429    7.6080 C   0  0  0  0  0  0  0  0  0  0  0  0
    7.1628  -37.8463    6.1803 C   0  0  0  0  0  0  0  0  0  0  0  0
    7.2138  -36.6911    8.3165 N   0  0  0  0  0  0  0  0  0  0  0  0
    6.6246  -36.2559    9.8268 S   0  0  0  0  0  0  0  0  0  0  0  0
    7.1351  -34.9353   10.1277 O   0  0  0  0  0  0  0  0  0  0  0  0
    5.2076  -36.5376    9.8798 O   0  0  0  0  0  0  0  0  0  0  0  0
    7.3306  -37.2563   11.0318 C   0  0  0  0  0  0  0  0  0  0  0  0
    6.6089  -38.1113   11.9232 C   0  0  0  0  0  0  0  0  0  0  0  0
    7.4532  -38.7506   12.8074 C   0  0  0  0  0  0  0  0  0  0  0  0
    9.0973  -38.3312   12.5379 S   0  0  0  0  0  0  0  0  0  0  0  0
    8.6769  -37.2797   11.2778 C   0  0  0  0  0  0  0  0  0  0  0  0
    9.5754  -36.5432   10.6014 F   0  0  0  0  0  0  0  0  0  0  0  0
  1  2  1  0
  2  3  1  0
  2  4  1  0
  4  5  1  0
  5  6  2  0
  5  7  2  0
  5  8  1  0
  8  9  1  0
  9 10  2  0
 10 11  1  0
 11 12  1  0
 12 13  1  0
 12  8  2  0
M  END
>  <inchikey>  (1900) 
DGYXCVPHUPZYNT-UHFFFAOYSA-N

>  <tags>  (1900) 
fragmenstein_placed,CpKRS_FrAncestor_bulkdock_iter2

>  <ref_pdb>  (1900) 
x0421a

>  <energy_score>  (1900) 
-41.42293

>  <distance_score>  (1900) 
0.496242

>  <HIPPO Pose ID>  (1900) 
62753

>  <ref_mols>  (1900) 
x0639c

>  <smiles>  (1900) 
CC(C)NS(=O)(=O)c1ccsc1F

>  <HIPPO Compound ID>  (1900) 
30726

>  <alias>  (1900) 
DGYXCVPHUPZYNT-UHFFFAOYSA-N-P54

>  <subsites>  (1900) 


>  <placement_batch>  (1900) 
CpKRS_FrAncestor_bulkdock_iter2

>  <name>  (1900) 
DGYXCVPHUPZYNT-UHFFFAOYSA-N-P54

$$$$
WTBUOKXBEMVQGM-UHFFFAOYSA-N-P54
     RDKit          3D

 13 13  0  0  0  0  0  0  0  0999 V2000
    8.6007  -39.7856    8.4354 C   0  0  0  0  0  0  0  0  0  0  0  0
    7.7675  -38.9717    8.1418 C   0  0  0  0  0  0  0  0  0  0  0  0
    6.7535  -37.9726    7.7932 C   0  0  0  0  0  0  0  0  0  0  0  0
    7.1405  -36.6585    8.2962 N   0  0  0  0  0  0  0  0  0  0  0  0
    6.6058  -36.2136    9.8119 S   0  0  0  0  0  0  0  0  0  0  0  0
    5.1851  -36.4652    9.9061 O   0  0  0  0  0  0  0  0  0  0  0  0
    7.1615  -34.9134   10.1200 O   0  0  0  0  0  0  0  0  0  0  0  0
    7.3117  -37.2457   10.9939 C   0  0  0  0  0  0  0  0  0  0  0  0
    6.5906  -38.1380   11.8473 C   0  0  0  0  0  0  0  0  0  0  0  0
    7.4313  -38.7875   12.7278 C   0  0  0  0  0  0  0  0  0  0  0  0
    9.0737  -38.3421   12.4907 S   0  0  0  0  0  0  0  0  0  0  0  0
    8.6561  -37.2658   11.2513 C   0  0  0  0  0  0  0  0  0  0  0  0
    9.5543  -36.5136   10.5915 F   0  0  0  0  0  0  0  0  0  0  0  0
  1  2  3  0
  2  3  1  0
  3  4  1  0
  4  5  1  0
  5  6  2  0
  5  7  2  0
  5  8  1  0
  8  9  1  0
  9 10  2  0
 10 11  1  0
 11 12  1  0
 12 13  1  0
 12  8  2  0
M  END
>  <inchikey>  (1901) 
WTBUOKXBEMVQGM-UHFFFAOYSA-N

>  <tags>  (1901) 
fragmenstein_placed,CpKRS_FrAncestor_bulkdock_iter2

>  <ref_pdb>  (1901) 
x0421a

>  <energy_score>  (1901) 
-40.521305

>  <distance_score>  (1901) 
0.471615

>  <HIPPO Pose ID>  (1901) 
62756

>  <ref_mols>  (1901) 
x0639c

>  <smiles>  (1901) 
C#CCNS(=O)(=O)c1ccsc1F

>  <HIPPO Compound ID>  (1901) 
30727

>  <alias>  (1901) 
WTBUOKXBEMVQGM-UHFFFAOYSA-N-P54

>  <subsites>  (1901) 


>  <placement_batch>  (1901) 
CpKRS_FrAncestor_bulkdock_iter2

>  <name>  (1901) 
WTBUOKXBEMVQGM-UHFFFAOYSA-N-P54

$$$$
XBTDDZNOMDAANC-UHFFFAOYSA-N-P54
     RDKit          3D

 13 13  0  0  0  0  0  0  0  0999 V2000
    7.9012  -39.0118    8.1186 C   0  0  0  0  0  0  0  0  0  0  0  0
    6.8655  -37.9984    7.6494 C   0  0  0  0  0  0  0  0  0  0  0  0
    5.4473  -38.5297    7.7845 C   0  0  0  0  0  0  0  0  0  0  0  0
    7.0841  -36.6919    8.2898 N   0  0  0  0  0  0  0  0  0  0  0  0
    6.4933  -36.2416    9.7802 S   0  0  0  0  0  0  0  0  0  0  0  0
    5.0635  -36.4414    9.8308 O   0  0  0  0  0  0  0  0  0  0  0  0
    7.0704  -34.9510   10.0941 O   0  0  0  0  0  0  0  0  0  0  0  0
    7.1206  -37.2699   10.9895 C   0  0  0  0  0  0  0  0  0  0  0  0
    6.3844  -38.1526   11.7461 C   0  0  0  0  0  0  0  0  0  0  0  0
    7.1806  -38.7727   12.6559 O   0  0  0  0  0  0  0  0  0  0  0  0
    8.4379  -38.2728   12.4864 C   0  0  0  0  0  0  0  0  0  0  0  0
    8.4459  -37.3632   11.4580 C   0  0  0  0  0  0  0  0  0  0  0  0
    9.9315  -36.4163   10.8250 Br  0  0  0  0  0  0  0  0  0  0  0  0
  1  2  1  0
  2  3  1  0
  2  4  1  0
  4  5  1  0
  5  6  2  0
  5  7  2  0
  5  8  1  0
  8  9  2  0
  9 10  1  0
 10 11  1  0
 11 12  2  0
 12 13  1  0
 12  8  1  0
M  END
>  <inchikey>  (1902) 
XBTDDZNOMDAANC-UHFFFAOYSA-N

>  <tags>  (1902) 
fragmenstein_placed,CpKRS_FrAncestor_bulkdock_iter2

>  <ref_pdb>  (1902) 
x0421a

>  <energy_score>  (1902) 
-46.998526

>  <distance_score>  (1902) 
0.442288

>  <HIPPO Pose ID>  (1902) 
62759

>  <ref_mols>  (1902) 
x0639c

>  <smiles>  (1902) 
CC(C)NS(=O)(=O)c1cocc1Br

>  <HIPPO Compound ID>  (1902) 
30728

>  <alias>  (1902) 
XBTDDZNOMDAANC-UHFFFAOYSA-N-P54

>  <subsites>  (1902) 


>  <placement_batch>  (1902) 
CpKRS_FrAncestor_bulkdock_iter2

>  <name>  (1902) 
XBTDDZNOMDAANC-UHFFFAOYSA-N-P54

$$$$
KIEIFAKVYWEOSV-UHFFFAOYSA-N-P54
     RDKit          3D

 13 13  0  0  0  0  0  0  0  0999 V2000
    8.6399  -39.7748    8.4738 C   0  0  0  0  0  0  0  0  0  0  0  0
    7.8080  -38.9729    8.1457 C   0  0  0  0  0  0  0  0  0  0  0  0
    6.7935  -37.9894    7.7570 C   0  0  0  0  0  0  0  0  0  0  0  0
    7.1427  -36.6718    8.2773 N   0  0  0  0  0  0  0  0  0  0  0  0
    6.5181  -36.2261    9.7571 S   0  0  0  0  0  0  0  0  0  0  0  0
    5.0918  -36.4612    9.7581 O   0  0  0  0  0  0  0  0  0  0  0  0
    7.0667  -34.9313   10.0990 O   0  0  0  0  0  0  0  0  0  0  0  0
    7.1293  -37.2626   10.9692 C   0  0  0  0  0  0  0  0  0  0  0  0
    6.3855  -38.1514   11.7110 C   0  0  0  0  0  0  0  0  0  0  0  0
    7.1718  -38.7741   12.6282 O   0  0  0  0  0  0  0  0  0  0  0  0
    8.4311  -38.2742   12.4735 C   0  0  0  0  0  0  0  0  0  0  0  0
    8.4498  -37.3600   11.4494 C   0  0  0  0  0  0  0  0  0  0  0  0
    9.9406  -36.4104   10.8334 Br  0  0  0  0  0  0  0  0  0  0  0  0
  1  2  3  0
  2  3  1  0
  3  4  1  0
  4  5  1  0
  5  6  2  0
  5  7  2  0
  5  8  1  0
  8  9  2  0
  9 10  1  0
 10 11  1  0
 11 12  2  0
 12 13  1  0
 12  8  1  0
M  END
>  <inchikey>  (1903) 
KIEIFAKVYWEOSV-UHFFFAOYSA-N

>  <tags>  (1903) 
fragmenstein_placed,CpKRS_FrAncestor_bulkdock_iter2

>  <ref_pdb>  (1903) 
x0421a

>  <energy_score>  (1903) 
-36.789187

>  <distance_score>  (1903) 
0.43452

>  <HIPPO Pose ID>  (1903) 
62762

>  <ref_mols>  (1903) 
x0639c

>  <smiles>  (1903) 
C#CCNS(=O)(=O)c1cocc1Br

>  <HIPPO Compound ID>  (1903) 
30729

>  <alias>  (1903) 
KIEIFAKVYWEOSV-UHFFFAOYSA-N-P54

>  <subsites>  (1903) 


>  <placement_batch>  (1903) 
CpKRS_FrAncestor_bulkdock_iter2

>  <name>  (1903) 
KIEIFAKVYWEOSV-UHFFFAOYSA-N-P54

$$$$
BTIHAZIIBIKDOA-UHFFFAOYSA-N-P54
     RDKit          3D

 13 13  0  0  0  0  0  0  0  0999 V2000
    8.0316  -38.5310    5.5217 C   0  0  0  0  0  0  0  0  0  0  0  0
    7.4193  -38.2560    6.5179 C   0  0  0  0  0  0  0  0  0  0  0  0
    6.6731  -37.9167    7.7357 C   0  0  0  0  0  0  0  0  0  0  0  0
    7.1907  -36.6521    8.2639 N   0  0  0  0  0  0  0  0  0  0  0  0
    6.5723  -36.1878    9.7469 S   0  0  0  0  0  0  0  0  0  0  0  0
    5.1428  -36.3989    9.7385 O   0  0  0  0  0  0  0  0  0  0  0  0
    7.1463  -34.9040   10.0881 O   0  0  0  0  0  0  0  0  0  0  0  0
    7.1778  -37.2493   10.9473 C   0  0  0  0  0  0  0  0  0  0  0  0
    6.4324  -38.1469   11.6716 C   0  0  0  0  0  0  0  0  0  0  0  0
    7.2213  -38.7851   12.5710 O   0  0  0  0  0  0  0  0  0  0  0  0
    8.4781  -38.2850   12.4245 C   0  0  0  0  0  0  0  0  0  0  0  0
    8.5215  -37.3416   11.4157 C   0  0  0  0  0  0  0  0  0  0  0  0
    9.7008  -36.5655   10.9595 C   0  0  0  0  0  0  0  0  0  0  0  0
  1  2  3  0
  2  3  1  0
  3  4  1  0
  4  5  1  0
  5  6  2  0
  5  7  2  0
  5  8  1  0
  8  9  2  0
  9 10  1  0
 10 11  1  0
 11 12  2  0
 12 13  1  0
 12  8  1  0
M  END
>  <inchikey>  (1904) 
BTIHAZIIBIKDOA-UHFFFAOYSA-N

>  <tags>  (1904) 
fragmenstein_placed,CpKRS_FrAncestor_bulkdock_iter2

>  <ref_pdb>  (1904) 
x0421a

>  <energy_score>  (1904) 
-41.736183

>  <distance_score>  (1904) 
0.452567

>  <HIPPO Pose ID>  (1904) 
62765

>  <ref_mols>  (1904) 
x0639c

>  <smiles>  (1904) 
C#CCNS(=O)(=O)c1cocc1C

>  <HIPPO Compound ID>  (1904) 
30730

>  <alias>  (1904) 
BTIHAZIIBIKDOA-UHFFFAOYSA-N-P54

>  <subsites>  (1904) 


>  <placement_batch>  (1904) 
CpKRS_FrAncestor_bulkdock_iter2

>  <name>  (1904) 
BTIHAZIIBIKDOA-UHFFFAOYSA-N-P54

$$$$
RXFRTRDGWICSQO-UHFFFAOYSA-N-P54
     RDKit          3D

 13 13  0  0  0  0  0  0  0  0999 V2000
    7.9905  -38.5759    7.0287 C   0  0  0  0  0  0  0  0  0  0  0  0
    6.7739  -37.9352    7.6895 C   0  0  0  0  0  0  0  0  0  0  0  0
    5.6781  -37.6711    6.6637 C   0  0  0  0  0  0  0  0  0  0  0  0
    7.2078  -36.6635    8.2953 N   0  0  0  0  0  0  0  0  0  0  0  0
    6.5315  -36.2048    9.7554 S   0  0  0  0  0  0  0  0  0  0  0  0
    7.0638  -34.9082   10.1134 O   0  0  0  0  0  0  0  0  0  0  0  0
    5.1051  -36.4343    9.7000 O   0  0  0  0  0  0  0  0  0  0  0  0
    7.1101  -37.2732   10.9845 C   0  0  0  0  0  0  0  0  0  0  0  0
    6.2812  -38.1301   11.6826 C   0  0  0  0  0  0  0  0  0  0  0  0
    7.1254  -39.0212   12.8720 S   0  0  0  0  0  0  0  0  0  0  0  0
    8.6081  -38.2673   12.4629 C   0  0  0  0  0  0  0  0  0  0  0  0
    8.4568  -37.3733   11.4288 C   0  0  0  0  0  0  0  0  0  0  0  0
    9.9062  -36.3856   10.7217 Br  0  0  0  0  0  0  0  0  0  0  0  0
  1  2  1  0
  2  3  1  0
  2  4  1  0
  4  5  1  0
  5  6  2  0
  5  7  2  0
  5  8  1  0
  8  9  2  0
  9 10  1  0
 10 11  1  0
 11 12  2  0
 12 13  1  0
 12  8  1  0
M  END
>  <inchikey>  (1905) 
RXFRTRDGWICSQO-UHFFFAOYSA-N

>  <tags>  (1905) 
fragmenstein_placed,CpKRS_FrAncestor_bulkdock_iter2

>  <ref_pdb>  (1905) 
x0421a

>  <energy_score>  (1905) 
-49.388104

>  <distance_score>  (1905) 
0.492579

>  <HIPPO Pose ID>  (1905) 
62768

>  <ref_mols>  (1905) 
x0639c

>  <smiles>  (1905) 
CC(C)NS(=O)(=O)c1cscc1Br

>  <HIPPO Compound ID>  (1905) 
30731

>  <alias>  (1905) 
RXFRTRDGWICSQO-UHFFFAOYSA-N-P54

>  <subsites>  (1905) 


>  <placement_batch>  (1905) 
CpKRS_FrAncestor_bulkdock_iter2

>  <name>  (1905) 
RXFRTRDGWICSQO-UHFFFAOYSA-N-P54

$$$$
YZNOOMCZGGDVKM-UHFFFAOYSA-N-P54
     RDKit          3D

 13 13  0  0  0  0  0  0  0  0999 V2000
    8.0493  -38.3957    5.4523 C   0  0  0  0  0  0  0  0  0  0  0  0
    7.4931  -38.2090    6.5005 C   0  0  0  0  0  0  0  0  0  0  0  0
    6.8174  -37.9766    7.7827 C   0  0  0  0  0  0  0  0  0  0  0  0
    7.1962  -36.6568    8.2824 N   0  0  0  0  0  0  0  0  0  0  0  0
    6.5222  -36.2010    9.7413 S   0  0  0  0  0  0  0  0  0  0  0  0
    7.0641  -34.9134   10.1156 O   0  0  0  0  0  0  0  0  0  0  0  0
    5.0976  -36.4410    9.6994 O   0  0  0  0  0  0  0  0  0  0  0  0
    7.1080  -37.2710   10.9709 C   0  0  0  0  0  0  0  0  0  0  0  0
    6.2811  -38.1226   11.6778 C   0  0  0  0  0  0  0  0  0  0  0  0
    7.1311  -39.0133   12.8635 S   0  0  0  0  0  0  0  0  0  0  0  0
    8.6132  -38.2643   12.4432 C   0  0  0  0  0  0  0  0  0  0  0  0
    8.4576  -37.3735   11.4071 C   0  0  0  0  0  0  0  0  0  0  0  0
    9.9047  -36.3943   10.6837 Br  0  0  0  0  0  0  0  0  0  0  0  0
  1  2  3  0
  2  3  1  0
  3  4  1  0
  4  5  1  0
  5  6  2  0
  5  7  2  0
  5  8  1  0
  8  9  2  0
  9 10  1  0
 10 11  1  0
 11 12  2  0
 12 13  1  0
 12  8  1  0
M  END
>  <inchikey>  (1906) 
YZNOOMCZGGDVKM-UHFFFAOYSA-N

>  <tags>  (1906) 
fragmenstein_placed,CpKRS_FrAncestor_bulkdock_iter2

>  <ref_pdb>  (1906) 
x0421a

>  <energy_score>  (1906) 
-37.2416

>  <distance_score>  (1906) 
0.489231

>  <HIPPO Pose ID>  (1906) 
62771

>  <ref_mols>  (1906) 
x0639c

>  <smiles>  (1906) 
C#CCNS(=O)(=O)c1cscc1Br

>  <HIPPO Compound ID>  (1906) 
30732

>  <alias>  (1906) 
YZNOOMCZGGDVKM-UHFFFAOYSA-N-P54

>  <subsites>  (1906) 


>  <placement_batch>  (1906) 
CpKRS_FrAncestor_bulkdock_iter2

>  <name>  (1906) 
YZNOOMCZGGDVKM-UHFFFAOYSA-N-P54

$$$$
YCCXCJCDIVVTCK-UHFFFAOYSA-N-P54
     RDKit          3D

 13 13  0  0  0  0  0  0  0  0999 V2000
    7.9894  -38.5689    7.0187 C   0  0  0  0  0  0  0  0  0  0  0  0
    6.7785  -37.9258    7.6874 C   0  0  0  0  0  0  0  0  0  0  0  0
    5.6800  -37.6509    6.6672 C   0  0  0  0  0  0  0  0  0  0  0  0
    7.2202  -36.6597    8.2981 N   0  0  0  0  0  0  0  0  0  0  0  0
    6.5529  -36.2023    9.7618 S   0  0  0  0  0  0  0  0  0  0  0  0
    7.0810  -34.9029   10.1152 O   0  0  0  0  0  0  0  0  0  0  0  0
    5.1273  -36.4396    9.7188 O   0  0  0  0  0  0  0  0  0  0  0  0
    7.1454  -37.2654   10.9865 C   0  0  0  0  0  0  0  0  0  0  0  0
    6.3344  -38.1421   11.6795 C   0  0  0  0  0  0  0  0  0  0  0  0
    7.2007  -39.0159   12.8631 S   0  0  0  0  0  0  0  0  0  0  0  0
    8.6629  -38.2251   12.4529 C   0  0  0  0  0  0  0  0  0  0  0  0
    8.5016  -37.3255   11.4210 C   0  0  0  0  0  0  0  0  0  0  0  0
    9.7884  -36.3950   10.7782 Cl  0  0  0  0  0  0  0  0  0  0  0  0
  1  2  1  0
  2  3  1  0
  2  4  1  0
  4  5  1  0
  5  6  2  0
  5  7  2  0
  5  8  1  0
  8  9  2  0
  9 10  1  0
 10 11  1  0
 11 12  2  0
 12 13  1  0
 12  8  1  0
M  END
>  <inchikey>  (1907) 
YCCXCJCDIVVTCK-UHFFFAOYSA-N

>  <tags>  (1907) 
fragmenstein_placed,CpKRS_FrAncestor_bulkdock_iter2

>  <ref_pdb>  (1907) 
x0421a

>  <energy_score>  (1907) 
-51.889804

>  <distance_score>  (1907) 
0.505224

>  <HIPPO Pose ID>  (1907) 
62774

>  <ref_mols>  (1907) 
x0639c

>  <smiles>  (1907) 
CC(C)NS(=O)(=O)c1cscc1Cl

>  <HIPPO Compound ID>  (1907) 
30733

>  <alias>  (1907) 
YCCXCJCDIVVTCK-UHFFFAOYSA-N-P54

>  <subsites>  (1907) 


>  <placement_batch>  (1907) 
CpKRS_FrAncestor_bulkdock_iter2

>  <name>  (1907) 
YCCXCJCDIVVTCK-UHFFFAOYSA-N-P54

$$$$
BCXFXMAHSQEKDC-UHFFFAOYSA-N-P54
     RDKit          3D

 13 13  0  0  0  0  0  0  0  0999 V2000
    8.2238  -38.5321    5.5975 C   0  0  0  0  0  0  0  0  0  0  0  0
    7.5487  -38.2503    6.5502 C   0  0  0  0  0  0  0  0  0  0  0  0
    6.7277  -37.9019    7.7157 C   0  0  0  0  0  0  0  0  0  0  0  0
    7.2355  -36.6565    8.2915 N   0  0  0  0  0  0  0  0  0  0  0  0
    6.5653  -36.2080    9.7541 S   0  0  0  0  0  0  0  0  0  0  0  0
    5.1417  -36.4562    9.6962 O   0  0  0  0  0  0  0  0  0  0  0  0
    7.0789  -34.9052   10.1149 O   0  0  0  0  0  0  0  0  0  0  0  0
    7.1533  -37.2679   10.9832 C   0  0  0  0  0  0  0  0  0  0  0  0
    6.3405  -38.1442   11.6746 C   0  0  0  0  0  0  0  0  0  0  0  0
    7.2032  -39.0143   12.8638 S   0  0  0  0  0  0  0  0  0  0  0  0
    8.6655  -38.2207   12.4596 C   0  0  0  0  0  0  0  0  0  0  0  0
    8.5071  -37.3227   11.4259 C   0  0  0  0  0  0  0  0  0  0  0  0
    9.7936  -36.3874   10.7902 Cl  0  0  0  0  0  0  0  0  0  0  0  0
  1  2  3  0
  2  3  1  0
  3  4  1  0
  4  5  1  0
  5  6  2  0
  5  7  2  0
  5  8  1  0
  8  9  2  0
  9 10  1  0
 10 11  1  0
 11 12  2  0
 12 13  1  0
 12  8  1  0
M  END
>  <inchikey>  (1908) 
BCXFXMAHSQEKDC-UHFFFAOYSA-N

>  <tags>  (1908) 
fragmenstein_placed,CpKRS_FrAncestor_bulkdock_iter2

>  <ref_pdb>  (1908) 
x0421a

>  <energy_score>  (1908) 
-34.934974

>  <distance_score>  (1908) 
0.506293

>  <HIPPO Pose ID>  (1908) 
62777

>  <ref_mols>  (1908) 
x0639c

>  <smiles>  (1908) 
C#CCNS(=O)(=O)c1cscc1Cl

>  <HIPPO Compound ID>  (1908) 
30734

>  <alias>  (1908) 
BCXFXMAHSQEKDC-UHFFFAOYSA-N-P54

>  <subsites>  (1908) 


>  <placement_batch>  (1908) 
CpKRS_FrAncestor_bulkdock_iter2

>  <name>  (1908) 
BCXFXMAHSQEKDC-UHFFFAOYSA-N-P54

$$$$
SZWYEHRSRZRZIG-UHFFFAOYSA-N-P54
     RDKit          3D

 13 13  0  0  0  0  0  0  0  0999 V2000
    7.8401  -38.6723    7.0701 C   0  0  0  0  0  0  0  0  0  0  0  0
    6.6763  -38.0602    7.8438 C   0  0  0  0  0  0  0  0  0  0  0  0
    5.4545  -37.9031    6.9463 C   0  0  0  0  0  0  0  0  0  0  0  0
    7.1094  -36.7394    8.3379 N   0  0  0  0  0  0  0  0  0  0  0  0
    6.5698  -36.2497    9.8522 S   0  0  0  0  0  0  0  0  0  0  0  0
    7.0740  -34.9103   10.0765 O   0  0  0  0  0  0  0  0  0  0  0  0
    5.1586  -36.5415    9.9605 O   0  0  0  0  0  0  0  0  0  0  0  0
    7.3904  -37.2542   11.0776 C   0  0  0  0  0  0  0  0  0  0  0  0
    6.6995  -38.1246   11.9044 O   0  0  0  0  0  0  0  0  0  0  0  0
    7.5917  -38.6739   12.7711 C   0  0  0  0  0  0  0  0  0  0  0  0
    8.8588  -38.2067   12.5232 C   0  0  0  0  0  0  0  0  0  0  0  0
    8.7218  -37.3132   11.4463 C   0  0  0  0  0  0  0  0  0  0  0  0
   10.1481  -36.3480   10.7081 Br  0  0  0  0  0  0  0  0  0  0  0  0
  1  2  1  0
  2  3  1  0
  2  4  1  0
  4  5  1  0
  5  6  2  0
  5  7  2  0
  5  8  1  0
  8  9  1  0
  9 10  1  0
 10 11  2  0
 11 12  1  0
 12 13  1  0
 12  8  2  0
M  END
>  <inchikey>  (1909) 
SZWYEHRSRZRZIG-UHFFFAOYSA-N

>  <tags>  (1909) 
fragmenstein_placed,CpKRS_FrAncestor_bulkdock_iter2

>  <ref_pdb>  (1909) 
x0421a

>  <energy_score>  (1909) 
-37.34957

>  <distance_score>  (1909) 
0.435453

>  <HIPPO Pose ID>  (1909) 
62780

>  <ref_mols>  (1909) 
x0639c

>  <smiles>  (1909) 
CC(C)NS(=O)(=O)c1occc1Br

>  <HIPPO Compound ID>  (1909) 
30735

>  <alias>  (1909) 
SZWYEHRSRZRZIG-UHFFFAOYSA-N-P54

>  <subsites>  (1909) 


>  <placement_batch>  (1909) 
CpKRS_FrAncestor_bulkdock_iter2

>  <name>  (1909) 
SZWYEHRSRZRZIG-UHFFFAOYSA-N-P54

$$$$
KXQLJLLYNHSLQB-UHFFFAOYSA-N-P54
     RDKit          3D

 13 13  0  0  0  0  0  0  0  0999 V2000
    8.6351  -39.7980    8.4479 C   0  0  0  0  0  0  0  0  0  0  0  0
    7.7598  -39.0175    8.1881 C   0  0  0  0  0  0  0  0  0  0  0  0
    6.6933  -38.0614    7.8813 C   0  0  0  0  0  0  0  0  0  0  0  0
    7.0867  -36.7184    8.3156 N   0  0  0  0  0  0  0  0  0  0  0  0
    6.5736  -36.2508    9.8442 S   0  0  0  0  0  0  0  0  0  0  0  0
    5.1594  -36.5341    9.9498 O   0  0  0  0  0  0  0  0  0  0  0  0
    7.0726  -34.9099   10.0733 O   0  0  0  0  0  0  0  0  0  0  0  0
    7.3896  -37.2555   11.0690 C   0  0  0  0  0  0  0  0  0  0  0  0
    6.6949  -38.1271   11.8916 O   0  0  0  0  0  0  0  0  0  0  0  0
    7.5835  -38.6781   12.7610 C   0  0  0  0  0  0  0  0  0  0  0  0
    8.8510  -38.2080   12.5218 C   0  0  0  0  0  0  0  0  0  0  0  0
    8.7187  -37.3120   11.4465 C   0  0  0  0  0  0  0  0  0  0  0  0
   10.1476  -36.3431   10.7184 Br  0  0  0  0  0  0  0  0  0  0  0  0
  1  2  3  0
  2  3  1  0
  3  4  1  0
  4  5  1  0
  5  6  2  0
  5  7  2  0
  5  8  1  0
  8  9  1  0
  9 10  1  0
 10 11  2  0
 11 12  1  0
 12 13  1  0
 12  8  2  0
M  END
>  <inchikey>  (1910) 
KXQLJLLYNHSLQB-UHFFFAOYSA-N

>  <tags>  (1910) 
fragmenstein_placed,CpKRS_FrAncestor_bulkdock_iter2

>  <ref_pdb>  (1910) 
x0421a

>  <energy_score>  (1910) 
-19.609332

>  <distance_score>  (1910) 
0.432464

>  <HIPPO Pose ID>  (1910) 
62783

>  <ref_mols>  (1910) 
x0639c

>  <smiles>  (1910) 
C#CCNS(=O)(=O)c1occc1Br

>  <HIPPO Compound ID>  (1910) 
30736

>  <alias>  (1910) 
KXQLJLLYNHSLQB-UHFFFAOYSA-N-P54

>  <subsites>  (1910) 


>  <placement_batch>  (1910) 
CpKRS_FrAncestor_bulkdock_iter2

>  <name>  (1910) 
KXQLJLLYNHSLQB-UHFFFAOYSA-N-P54

$$$$
JGHYYXGRUXWRPX-UHFFFAOYSA-N-P52
     RDKit          3D

 13 13  0  0  0  0  0  0  0  0999 V2000
   22.2535    7.9964   21.6469 C   0  0  0  0  0  0  0  0  0  0  0  0
   21.8817    7.3514   22.5899 C   0  0  0  0  0  0  0  0  0  0  0  0
   21.5009    6.5599   23.7672 C   0  0  0  0  0  0  0  0  0  0  0  0
   20.8985    7.4140   24.7885 N   0  0  0  0  0  0  0  0  0  0  0  0
   21.9426    8.2396   25.8058 S   0  0  0  0  0  0  0  0  0  0  0  0
   21.1245    9.1073   26.6259 O   0  0  0  0  0  0  0  0  0  0  0  0
   22.8689    7.2945   26.3873 O   0  0  0  0  0  0  0  0  0  0  0  0
   22.9278    9.3624   24.8013 C   0  0  0  0  0  0  0  0  0  0  0  0
   24.3023    9.2534   24.7385 O   0  0  0  0  0  0  0  0  0  0  0  0
   24.7584   10.1703   23.8538 C   0  0  0  0  0  0  0  0  0  0  0  0
   23.7153   10.8828   23.3225 C   0  0  0  0  0  0  0  0  0  0  0  0
   22.5337   10.3993   23.9500 C   0  0  0  0  0  0  0  0  0  0  0  0
   21.1443   10.8651   23.7140 C   0  0  0  0  0  0  0  0  0  0  0  0
  1  2  3  0
  2  3  1  0
  3  4  1  0
  4  5  1  0
  5  6  2  0
  5  7  2  0
  5  8  1  0
  8  9  1  0
  9 10  1  0
 10 11  2  0
 11 12  1  0
 12 13  1  0
 12  8  2  0
M  END
>  <inchikey>  (1911) 
JGHYYXGRUXWRPX-UHFFFAOYSA-N

>  <tags>  (1911) 
fragmenstein_placed,CpKRS_FrAncestor_bulkdock_iter2

>  <ref_pdb>  (1911) 
x0421a

>  <energy_score>  (1911) 
-22.473219

>  <distance_score>  (1911) 
0.41469

>  <HIPPO Pose ID>  (1911) 
62784

>  <ref_mols>  (1911) 
x0639a

>  <smiles>  (1911) 
C#CCNS(=O)(=O)c1occc1C

>  <HIPPO Compound ID>  (1911) 
30737

>  <alias>  (1911) 
JGHYYXGRUXWRPX-UHFFFAOYSA-N-P52

>  <subsites>  (1911) 


>  <placement_batch>  (1911) 
CpKRS_FrAncestor_bulkdock_iter2

>  <name>  (1911) 
JGHYYXGRUXWRPX-UHFFFAOYSA-N-P52

$$$$
QFJQRFGGCORQNU-UHFFFAOYSA-N-P54
     RDKit          3D

 13 13  0  0  0  0  0  0  0  0999 V2000
    5.5160  -37.8191    6.8505 C   0  0  0  0  0  0  0  0  0  0  0  0
    6.7060  -38.0149    7.7824 C   0  0  0  0  0  0  0  0  0  0  0  0
    7.8881  -38.6186    7.0303 C   0  0  0  0  0  0  0  0  0  0  0  0
    7.1359  -36.7135    8.3262 N   0  0  0  0  0  0  0  0  0  0  0  0
    6.5599  -36.2535    9.8344 S   0  0  0  0  0  0  0  0  0  0  0  0
    7.0561  -34.9160   10.0867 O   0  0  0  0  0  0  0  0  0  0  0  0
    5.1441  -36.5375    9.8917 O   0  0  0  0  0  0  0  0  0  0  0  0
    7.3746  -37.2621   11.0444 C   0  0  0  0  0  0  0  0  0  0  0  0
    6.4083  -38.3276   11.9755 S   0  0  0  0  0  0  0  0  0  0  0  0
    7.7462  -38.8232   12.9241 C   0  0  0  0  0  0  0  0  0  0  0  0
    8.9164  -38.2194   12.5186 C   0  0  0  0  0  0  0  0  0  0  0  0
    8.6913  -37.3318   11.4372 C   0  0  0  0  0  0  0  0  0  0  0  0
   10.1066  -36.3315   10.6888 Br  0  0  0  0  0  0  0  0  0  0  0  0
  1  2  1  0
  2  3  1  0
  2  4  1  0
  4  5  1  0
  5  6  2  0
  5  7  2  0
  5  8  1  0
  8  9  1  0
  9 10  1  0
 10 11  2  0
 11 12  1  0
 12 13  1  0
 12  8  2  0
M  END
>  <inchikey>  (1912) 
QFJQRFGGCORQNU-UHFFFAOYSA-N

>  <tags>  (1912) 
fragmenstein_placed,CpKRS_FrAncestor_bulkdock_iter2

>  <ref_pdb>  (1912) 
x0421a

>  <energy_score>  (1912) 
-47.611246

>  <distance_score>  (1912) 
0.503724

>  <HIPPO Pose ID>  (1912) 
62789

>  <ref_mols>  (1912) 
x0639c

>  <smiles>  (1912) 
CC(C)NS(=O)(=O)c1sccc1Br

>  <HIPPO Compound ID>  (1912) 
30738

>  <alias>  (1912) 
QFJQRFGGCORQNU-UHFFFAOYSA-N-P54

>  <subsites>  (1912) 


>  <placement_batch>  (1912) 
CpKRS_FrAncestor_bulkdock_iter2

>  <name>  (1912) 
QFJQRFGGCORQNU-UHFFFAOYSA-N-P54

$$$$
HRQBGTMDPVURCR-UHFFFAOYSA-N-P54
     RDKit          3D

 13 13  0  0  0  0  0  0  0  0999 V2000
    7.7975  -38.4904    5.4618 C   0  0  0  0  0  0  0  0  0  0  0  0
    7.3231  -38.2985    6.5485 C   0  0  0  0  0  0  0  0  0  0  0  0
    6.7463  -38.0596    7.8771 C   0  0  0  0  0  0  0  0  0  0  0  0
    7.1124  -36.7151    8.3146 N   0  0  0  0  0  0  0  0  0  0  0  0
    6.5495  -36.2511    9.8217 S   0  0  0  0  0  0  0  0  0  0  0  0
    5.1360  -36.5387    9.9003 O   0  0  0  0  0  0  0  0  0  0  0  0
    7.0634  -34.9229   10.0848 O   0  0  0  0  0  0  0  0  0  0  0  0
    7.3722  -37.2621   11.0313 C   0  0  0  0  0  0  0  0  0  0  0  0
    6.4108  -38.3313   11.9631 S   0  0  0  0  0  0  0  0  0  0  0  0
    7.7515  -38.8219   12.9103 C   0  0  0  0  0  0  0  0  0  0  0  0
    8.9196  -38.2161   12.5018 C   0  0  0  0  0  0  0  0  0  0  0  0
    8.6903  -37.3299   11.4203 C   0  0  0  0  0  0  0  0  0  0  0  0
   10.1020  -36.3310   10.6637 Br  0  0  0  0  0  0  0  0  0  0  0  0
  1  2  3  0
  2  3  1  0
  3  4  1  0
  4  5  1  0
  5  6  2  0
  5  7  2  0
  5  8  1  0
  8  9  1  0
  9 10  1  0
 10 11  2  0
 11 12  1  0
 12 13  1  0
 12  8  2  0
M  END
>  <inchikey>  (1913) 
HRQBGTMDPVURCR-UHFFFAOYSA-N

>  <tags>  (1913) 
fragmenstein_placed,CpKRS_FrAncestor_bulkdock_iter2

>  <ref_pdb>  (1913) 
x0421a

>  <energy_score>  (1913) 
-40.445599

>  <distance_score>  (1913) 
0.497571

>  <HIPPO Pose ID>  (1913) 
62792

>  <ref_mols>  (1913) 
x0639c

>  <smiles>  (1913) 
C#CCNS(=O)(=O)c1sccc1Br

>  <HIPPO Compound ID>  (1913) 
30739

>  <alias>  (1913) 
HRQBGTMDPVURCR-UHFFFAOYSA-N-P54

>  <subsites>  (1913) 


>  <placement_batch>  (1913) 
CpKRS_FrAncestor_bulkdock_iter2

>  <name>  (1913) 
HRQBGTMDPVURCR-UHFFFAOYSA-N-P54

$$$$
DJKOSFWTTUSHSG-UHFFFAOYSA-N-P54
     RDKit          3D

 13 13  0  0  0  0  0  0  0  0999 V2000
    7.9279  -39.0082    8.1397 C   0  0  0  0  0  0  0  0  0  0  0  0
    6.8488  -38.0241    7.7087 C   0  0  0  0  0  0  0  0  0  0  0  0
    5.4500  -38.5856    7.9075 C   0  0  0  0  0  0  0  0  0  0  0  0
    7.0618  -36.7079    8.3278 N   0  0  0  0  0  0  0  0  0  0  0  0
    6.5498  -36.2636    9.8526 S   0  0  0  0  0  0  0  0  0  0  0  0
    7.0813  -34.9345   10.0847 O   0  0  0  0  0  0  0  0  0  0  0  0
    5.1333  -36.5128    9.9865 O   0  0  0  0  0  0  0  0  0  0  0  0
    7.3944  -37.2551   11.0558 C   0  0  0  0  0  0  0  0  0  0  0  0
    6.4556  -38.3251   12.0077 S   0  0  0  0  0  0  0  0  0  0  0  0
    7.8124  -38.7962   12.9371 C   0  0  0  0  0  0  0  0  0  0  0  0
    8.9650  -38.1736   12.5116 C   0  0  0  0  0  0  0  0  0  0  0  0
    8.7223  -37.2871   11.4256 C   0  0  0  0  0  0  0  0  0  0  0  0
    9.9724  -36.3595   10.7143 Cl  0  0  0  0  0  0  0  0  0  0  0  0
  1  2  1  0
  2  3  1  0
  2  4  1  0
  4  5  1  0
  5  6  2  0
  5  7  2  0
  5  8  1  0
  8  9  1  0
  9 10  1  0
 10 11  2  0
 11 12  1  0
 12 13  1  0
 12  8  2  0
M  END
>  <inchikey>  (1914) 
DJKOSFWTTUSHSG-UHFFFAOYSA-N

>  <tags>  (1914) 
fragmenstein_placed,CpKRS_FrAncestor_bulkdock_iter2

>  <ref_pdb>  (1914) 
x0421a

>  <energy_score>  (1914) 
-41.882024

>  <distance_score>  (1914) 
0.509382

>  <HIPPO Pose ID>  (1914) 
62795

>  <ref_mols>  (1914) 
x0639c

>  <smiles>  (1914) 
CC(C)NS(=O)(=O)c1sccc1Cl

>  <HIPPO Compound ID>  (1914) 
30740

>  <alias>  (1914) 
DJKOSFWTTUSHSG-UHFFFAOYSA-N-P54

>  <subsites>  (1914) 


>  <placement_batch>  (1914) 
CpKRS_FrAncestor_bulkdock_iter2

>  <name>  (1914) 
DJKOSFWTTUSHSG-UHFFFAOYSA-N-P54

$$$$
JIYWKALPJBMVNR-UHFFFAOYSA-N-P52
     RDKit          3D

 13 13  0  0  0  0  0  0  0  0999 V2000
   23.7598    5.2262   25.1004 C   0  0  0  0  0  0  0  0  0  0  0  0
   22.8147    5.7836   24.6100 C   0  0  0  0  0  0  0  0  0  0  0  0
   21.6594    6.4496   23.9951 C   0  0  0  0  0  0  0  0  0  0  0  0
   20.9673    7.3822   24.8912 N   0  0  0  0  0  0  0  0  0  0  0  0
   21.8895    8.4639   25.7768 S   0  0  0  0  0  0  0  0  0  0  0  0
   22.7437    7.7293   26.6782 O   0  0  0  0  0  0  0  0  0  0  0  0
   20.9761    9.4636   26.2839 O   0  0  0  0  0  0  0  0  0  0  0  0
   22.9166    9.3457   24.6331 C   0  0  0  0  0  0  0  0  0  0  0  0
   24.6122    9.1791   24.7635 S   0  0  0  0  0  0  0  0  0  0  0  0
   24.8888   10.2577   23.4679 C   0  0  0  0  0  0  0  0  0  0  0  0
   23.7087   10.6938   22.9088 C   0  0  0  0  0  0  0  0  0  0  0  0
   22.5733   10.1629   23.5807 C   0  0  0  0  0  0  0  0  0  0  0  0
   20.9689   10.5079   23.1079 Cl  0  0  0  0  0  0  0  0  0  0  0  0
  1  2  3  0
  2  3  1  0
  3  4  1  0
  4  5  1  0
  5  6  2  0
  5  7  2  0
  5  8  1  0
  8  9  1  0
  9 10  1  0
 10 11  2  0
 11 12  1  0
 12 13  1  0
 12  8  2  0
M  END
>  <inchikey>  (1915) 
JIYWKALPJBMVNR-UHFFFAOYSA-N

>  <tags>  (1915) 
fragmenstein_placed,CpKRS_FrAncestor_bulkdock_iter2

>  <ref_pdb>  (1915) 
x0421a

>  <energy_score>  (1915) 
-28.845377

>  <distance_score>  (1915) 
0.516337

>  <HIPPO Pose ID>  (1915) 
62796

>  <ref_mols>  (1915) 
x0639a

>  <smiles>  (1915) 
C#CCNS(=O)(=O)c1sccc1Cl

>  <HIPPO Compound ID>  (1915) 
30741

>  <alias>  (1915) 
JIYWKALPJBMVNR-UHFFFAOYSA-N-P52

>  <subsites>  (1915) 


>  <placement_batch>  (1915) 
CpKRS_FrAncestor_bulkdock_iter2

>  <name>  (1915) 
JIYWKALPJBMVNR-UHFFFAOYSA-N-P52

$$$$
LJJIWCKAGUOVCH-UHFFFAOYSA-N-P52
     RDKit          3D

 13 13  0  0  0  0  0  0  0  0999 V2000
   22.2185    7.9794   21.6360 C   0  0  0  0  0  0  0  0  0  0  0  0
   21.8432    7.3346   22.5777 C   0  0  0  0  0  0  0  0  0  0  0  0
   21.4667    6.5490   23.7601 C   0  0  0  0  0  0  0  0  0  0  0  0
   20.8932    7.4168   24.7875 N   0  0  0  0  0  0  0  0  0  0  0  0
   21.9639    8.2286   25.7865 S   0  0  0  0  0  0  0  0  0  0  0  0
   22.8588    7.2621   26.3821 O   0  0  0  0  0  0  0  0  0  0  0  0
   21.1671    9.1186   26.6044 O   0  0  0  0  0  0  0  0  0  0  0  0
   22.9372    9.3252   24.7587 C   0  0  0  0  0  0  0  0  0  0  0  0
   24.6216    9.0255   24.6950 S   0  0  0  0  0  0  0  0  0  0  0  0
   24.8757   10.2786   23.5703 C   0  0  0  0  0  0  0  0  0  0  0  0
   23.6988   10.9011   23.2275 C   0  0  0  0  0  0  0  0  0  0  0  0
   22.5633   10.3773   23.9297 C   0  0  0  0  0  0  0  0  0  0  0  0
   21.1653   10.8669   23.7471 C   0  0  0  0  0  0  0  0  0  0  0  0
  1  2  3  0
  2  3  1  0
  3  4  1  0
  4  5  1  0
  5  6  2  0
  5  7  2  0
  5  8  1  0
  8  9  1  0
  9 10  1  0
 10 11  2  0
 11 12  1  0
 12 13  1  0
 12  8  2  0
M  END
>  <inchikey>  (1916) 
LJJIWCKAGUOVCH-UHFFFAOYSA-N

>  <tags>  (1916) 
fragmenstein_placed,CpKRS_FrAncestor_bulkdock_iter2

>  <ref_pdb>  (1916) 
x0421a

>  <energy_score>  (1916) 
-24.414392

>  <distance_score>  (1916) 
0.474309

>  <HIPPO Pose ID>  (1916) 
62799

>  <ref_mols>  (1916) 
x0639a

>  <smiles>  (1916) 
C#CCNS(=O)(=O)c1sccc1C

>  <HIPPO Compound ID>  (1916) 
30742

>  <alias>  (1916) 
LJJIWCKAGUOVCH-UHFFFAOYSA-N-P52

>  <subsites>  (1916) 


>  <placement_batch>  (1916) 
CpKRS_FrAncestor_bulkdock_iter2

>  <name>  (1916) 
LJJIWCKAGUOVCH-UHFFFAOYSA-N-P52

$$$$
YODPGTDMWUNVRA-UHFFFAOYSA-N-P10
     RDKit          3D

 20 22  0  0  0  0  0  0  0  0999 V2000
    6.0707   -6.5856   25.2523 C   0  0  0  0  0  0  0  0  0  0  0  0
    5.3011   -7.8681   25.0163 C   0  0  0  0  0  0  0  0  0  0  0  0
    5.2163   -8.2430   23.5491 C   0  0  0  0  0  0  0  0  0  0  0  0
    5.3224   -7.4214   22.6409 O   0  0  0  0  0  0  0  0  0  0  0  0
    4.9823   -9.6735   23.2111 C   0  0  0  0  0  0  0  0  0  0  0  0
    5.2635  -10.0977   21.9154 C   0  0  0  0  0  0  0  0  0  0  0  0
    5.1448  -11.4455   21.6008 C   0  0  0  0  0  0  0  0  0  0  0  0
    4.7919  -12.3825   22.5609 C   0  0  0  0  0  0  0  0  0  0  0  0
    4.4949  -11.9621   23.8451 C   0  0  0  0  0  0  0  0  0  0  0  0
    4.1837  -12.8864   24.8303 N   0  0  0  0  0  0  0  0  0  0  0  0
    4.3753  -14.4266   24.8607 C   0  0  0  0  0  0  0  0  0  0  0  0
    4.7451  -15.1429   24.0478 O   0  0  0  0  0  0  0  0  0  0  0  0
    3.8795  -14.7108   26.2630 N   0  0  0  0  0  0  0  0  0  0  0  0
    2.3369  -14.9427   26.2852 C   0  0  0  0  0  0  0  0  0  0  0  0
    2.5268  -15.5735   27.6140 C   0  0  0  0  0  0  0  0  0  0  0  0
    2.5155  -14.6493   28.7986 C   0  0  0  0  0  0  0  0  0  0  0  0
    1.1772  -15.3136   29.0851 C   0  0  0  0  0  0  0  0  0  0  0  0
    1.5291  -16.4081   28.1970 O   0  0  0  0  0  0  0  0  0  0  0  0
    3.8195  -16.0154   27.0454 C   0  0  0  0  0  0  0  0  0  0  0  0
    4.5360  -10.6026   24.1593 C   0  0  0  0  0  0  0  0  0  0  0  0
  1  2  1  0
  2  3  1  0
  3  4  2  0
  3  5  1  0
  5  6  2  0
  6  7  1  0
  7  8  2  0
  8  9  1  0
  9 10  1  0
 10 11  1  0
 11 12  2  0
 11 13  1  0
 13 14  1  0
 14 15  1  0
 15 16  1  0
 16 17  1  0
 17 18  1  0
 15 19  1  0
  9 20  2  0
 20  5  1  0
 19 13  1  0
 18 15  1  0
M  END
>  <inchikey>  (1917) 
YODPGTDMWUNVRA-UHFFFAOYSA-N

>  <tags>  (1917) 
fragmenstein_placed,CpKRS_FrAncestor_bulkdock_iter2

>  <ref_pdb>  (1917) 
x0421a

>  <energy_score>  (1917) 
-15.726859

>  <distance_score>  (1917) 
0.737895

>  <HIPPO Pose ID>  (1917) 
62804

>  <ref_mols>  (1917) 
x0419c

>  <smiles>  (1917) 
CCC(=O)c1cccc(NC(=O)N2CC3(CCO3)C2)c1

>  <HIPPO Compound ID>  (1917) 
30743

>  <alias>  (1917) 
YODPGTDMWUNVRA-UHFFFAOYSA-N-P10

>  <subsites>  (1917) 


>  <placement_batch>  (1917) 
CpKRS_FrAncestor_bulkdock_iter2

>  <name>  (1917) 
YODPGTDMWUNVRA-UHFFFAOYSA-N-P10

$$$$
KUMXNRRMINICNS-UHFFFAOYSA-N-P10
     RDKit          3D

 18 19  0  0  0  0  0  0  0  0999 V2000
    6.5210   -7.0339   24.4383 C   0  0  0  0  0  0  0  0  0  0  0  0
    5.5428   -8.1212   24.8348 C   0  0  0  0  0  0  0  0  0  0  0  0
    4.7221   -7.6687   26.0344 C   0  0  0  0  0  0  0  0  0  0  0  0
    4.6993   -8.3656   23.6898 O   0  0  0  0  0  0  0  0  0  0  0  0
    4.6430   -9.6983   23.3747 C   0  0  0  0  0  0  0  0  0  0  0  0
    5.0602  -10.0848   22.1090 C   0  0  0  0  0  0  0  0  0  0  0  0
    5.0581  -11.4383   21.7822 C   0  0  0  0  0  0  0  0  0  0  0  0
    4.6615  -12.4020   22.7090 C   0  0  0  0  0  0  0  0  0  0  0  0
    4.2329  -12.0098   23.9702 C   0  0  0  0  0  0  0  0  0  0  0  0
    3.9378  -12.9407   24.9611 N   0  0  0  0  0  0  0  0  0  0  0  0
    3.9808  -14.4935   24.9282 C   0  0  0  0  0  0  0  0  0  0  0  0
    4.1913  -15.2104   24.0599 O   0  0  0  0  0  0  0  0  0  0  0  0
    3.7606  -14.7792   26.4077 N   0  0  0  0  0  0  0  0  0  0  0  0
    2.2007  -15.0226   26.7328 C   0  0  0  0  0  0  0  0  0  0  0  0
    2.5907  -15.8247   27.9300 C   0  0  0  0  0  0  0  0  0  0  0  0
    2.1058  -16.1265   28.9960 O   0  0  0  0  0  0  0  0  0  0  0  0
    3.8560  -16.0987   27.1960 C   0  0  0  0  0  0  0  0  0  0  0  0
    4.1752  -10.6511   24.2823 C   0  0  0  0  0  0  0  0  0  0  0  0
  1  2  1  0
  2  3  1  0
  2  4  1  0
  4  5  1  0
  5  6  2  0
  6  7  1  0
  7  8  2  0
  8  9  1  0
  9 10  1  0
 10 11  1  0
 11 12  2  0
 11 13  1  0
 13 14  1  0
 14 15  1  0
 15 16  2  0
 15 17  1  0
  9 18  2  0
 18  5  1  0
 17 13  1  0
M  END
>  <inchikey>  (1918) 
KUMXNRRMINICNS-UHFFFAOYSA-N

>  <tags>  (1918) 
fragmenstein_placed,CpKRS_FrAncestor_bulkdock_iter2

>  <ref_pdb>  (1918) 
x0421a

>  <energy_score>  (1918) 
-8.799567

>  <distance_score>  (1918) 
0.804264

>  <HIPPO Pose ID>  (1918) 
62822

>  <ref_mols>  (1918) 
x0419c

>  <smiles>  (1918) 
CC(C)Oc1cccc(NC(=O)N2CC(=O)C2)c1

>  <HIPPO Compound ID>  (1918) 
30749

>  <alias>  (1918) 
KUMXNRRMINICNS-UHFFFAOYSA-N-P10

>  <subsites>  (1918) 


>  <placement_batch>  (1918) 
CpKRS_FrAncestor_bulkdock_iter2

>  <name>  (1918) 
KUMXNRRMINICNS-UHFFFAOYSA-N-P10

$$$$
TULGWIGSCKGUBA-UHFFFAOYSA-N-P9
     RDKit          3D

 21 23  0  0  0  0  0  0  0  0999 V2000
    0.4970  -13.0773   26.7205 C   0  0  0  0  0  0  0  0  0  0  0  0
    0.6879  -14.0475   27.4026 C   0  0  0  0  0  0  0  0  0  0  0  0
    0.9195  -15.2983   28.1329 C   0  0  0  0  0  0  0  0  0  0  0  0
    2.2640  -15.4373   28.5397 O   0  0  0  0  0  0  0  0  0  0  0  0
    3.0907  -16.1940   27.6256 C   0  0  0  0  0  0  0  0  0  0  0  0
    3.2428  -15.7061   26.2067 C   0  0  0  0  0  0  0  0  0  0  0  0
    4.2776  -14.6941   26.7493 N   0  0  0  0  0  0  0  0  0  0  0  0
    5.1020  -14.1004   25.6374 C   0  0  0  0  0  0  0  0  0  0  0  0
    6.0874  -14.4519   25.1828 O   0  0  0  0  0  0  0  0  0  0  0  0
    4.1728  -12.9389   25.2283 N   0  0  0  0  0  0  0  0  0  0  0  0
    4.2396  -12.0786   24.1547 C   0  0  0  0  0  0  0  0  0  0  0  0
    4.7654  -12.5483   22.9415 C   0  0  0  0  0  0  0  0  0  0  0  0
    5.0952  -11.6627   21.9220 C   0  0  0  0  0  0  0  0  0  0  0  0
    4.9939  -10.3137   22.1825 C   0  0  0  0  0  0  0  0  0  0  0  0
    4.4576   -9.8856   23.3868 C   0  0  0  0  0  0  0  0  0  0  0  0
    3.9757  -10.7351   24.3543 C   0  0  0  0  0  0  0  0  0  0  0  0
    4.6900   -8.4618   23.5048 C   0  0  0  0  0  0  0  0  0  0  0  0
    4.4070   -7.7995   24.4828 O   0  0  0  0  0  0  0  0  0  0  0  0
    5.3988   -7.9679   22.2850 C   0  0  0  0  0  0  0  0  0  0  0  0
    5.4644   -9.1768   21.3482 C   0  0  0  0  0  0  0  0  0  0  0  0
    4.5523  -15.8535   27.6470 C   0  0  0  0  0  0  0  0  0  0  0  0
  1  2  3  0
  2  3  1  0
  3  4  1  0
  4  5  1  0
  5  6  1  0
  6  7  1  0
  7  8  1  0
  8  9  2  0
  8 10  1  0
 10 11  1  0
 11 12  2  0
 12 13  1  0
 13 14  2  0
 14 15  1  0
 15 16  2  0
 15 17  1  0
 17 18  2  0
 17 19  1  0
 19 20  1  0
  7 21  1  0
 21  5  1  0
 16 11  1  0
 20 14  1  0
M  END
>  <inchikey>  (1919) 
TULGWIGSCKGUBA-UHFFFAOYSA-N

>  <tags>  (1919) 
fragmenstein_placed,CpKRS_FrAncestor_bulkdock_iter2

>  <ref_pdb>  (1919) 
x0421a

>  <energy_score>  (1919) 
-1.018506

>  <distance_score>  (1919) 
0.859437

>  <HIPPO Pose ID>  (1919) 
62860

>  <ref_mols>  (1919) 
x0419a

>  <smiles>  (1919) 
C#CCOC1CN(C(=O)Nc2ccc3c(c2)C(=O)CC3)C1

>  <HIPPO Compound ID>  (1919) 
30763

>  <alias>  (1919) 
TULGWIGSCKGUBA-UHFFFAOYSA-N-P9

>  <subsites>  (1919) 


>  <placement_batch>  (1919) 
CpKRS_FrAncestor_bulkdock_iter2

>  <name>  (1919) 
TULGWIGSCKGUBA-UHFFFAOYSA-N-P9

$$$$
