ver_1.2
     RDKit          3D

 11 11  0  0  0  0  0  0  0  0999 V2000
    3.9761   -1.5254    0.8883 C   0  0  0  0  0  0  0  0  0  0  0  0
    2.6705   -0.8960    0.9257 N   0  0  0  0  0  0  0  0  0  0  0  0
    2.1612   -0.6335   -0.4252 C   0  0  0  0  0  0  0  0  0  0  0  0
    0.8290    0.0070   -0.2471 C   0  0  0  0  0  0  0  0  0  0  0  0
    0.7685    1.3813   -0.1551 C   0  0  0  0  0  0  0  0  0  0  0  0
   -0.4131    2.0224    0.0074 C   0  0  0  0  0  0  0  0  0  0  0  0
   -1.5524    1.3156    0.0813 N   0  0  0  0  0  0  0  0  0  0  0  0
   -1.5158   -0.0215   -0.0059 C   0  0  0  0  0  0  0  0  0  0  0  0
   -2.6772   -0.7941    0.0662 O   0  0  0  0  0  0  0  0  0  0  0  0
   -3.9133   -0.1233    0.2362 C   0  0  0  0  0  0  0  0  0  0  0  0
   -0.3336   -0.7325   -0.1728 C   0  0  0  0  0  0  0  0  0  0  0  0
  1  2  1  0
  2  3  1  0
  3  4  1  0
  4  5  2  0
  5  6  1  0
  6  7  2  0
  7  8  1  0
  8  9  1  0
  9 10  1  0
  8 11  2  0
 11  4  1  0
M  END
>  <ref_url>  (1) 
https://github.com/mwinokan/BulkDock

>  <submitter_name>  (1) 
Max Winokan

>  <submitter_email>  (1) 
max.winokan@diamond.ac.uk

>  <submitter_institution>  (1) 
DLS

>  <generation_date>  (1) 
2025-09-08

>  <method>  (1) 
CpKRS_FrAncestor_bulkdock_iter2_cluster_best5

>  <HIPPO Pose ID>  (1) 
HIPPO Pose ID

>  <HIPPO Compound ID>  (1) 
HIPPO Compound ID

>  <smiles>  (1) 
smiles

>  <ref_pdb>  (1) 
protein reference

>  <ref_mols>  (1) 
fragment inspirations

>  <alias>  (1) 
alias

>  <distance_score>  (1) 
distance_score

>  <energy_score>  (1) 
energy_score

>  <inspiration_score>  (1) 
inspiration_score

>  <subsites>  (1) 
subsites

>  <tags>  (1) 
tags

>  <placement_batch>  (1) 
BulkDock placement batch

$$$$
BMFZKBUDQUCZNE-BMSJAHLVSA-N-P40
     RDKit          3D

 14 14  0  0  0  0  0  0  0  0999 V2000
    5.8418   -7.2691   22.7975 H   0  0  0  0  0  0  0  0  0  0  0  0
    5.5449   -8.2961   22.5715 C   0  0  0  0  0  0  0  0  0  0  0  0
    4.6837   -8.2494   21.8961 H   0  0  0  0  0  0  0  0  0  0  0  0
    6.3890   -8.7984   22.0897 H   0  0  0  0  0  0  0  0  0  0  0  0
    5.1957   -8.9199   23.8029 O   0  0  0  0  0  0  0  0  0  0  0  0
    4.9434  -10.2664   23.6513 C   0  0  0  0  0  0  0  0  0  0  0  0
    4.8250  -11.0193   24.8102 C   0  0  0  0  0  0  0  0  0  0  0  0
    4.5359  -12.3833   24.6979 C   0  0  0  0  0  0  0  0  0  0  0  0
    4.3781  -13.2490   25.9246 C   0  0  0  0  0  0  0  0  0  0  0  0
    3.0462  -13.8539   26.0113 N   0  0  0  0  0  0  0  0  0  0  0  0
    3.0649  -15.2693   25.6618 C   0  0  0  0  0  0  0  0  0  0  0  0
    4.4046  -12.9202   23.4154 C   0  0  0  0  0  0  0  0  0  0  0  0
    4.5263  -12.0822   22.3232 C   0  0  0  0  0  0  0  0  0  0  0  0
    4.7708  -10.7612   22.4112 N   0  0  0  0  0  0  0  0  0  0  0  0
  1  2  1  0
  2  3  1  0
  2  4  1  0
  2  5  1  0
  5  6  1  0
  6  7  2  0
  7  8  1  0
  8  9  1  0
  9 10  1  0
 10 11  1  0
  8 12  2  0
 12 13  1  0
 13 14  2  0
 14  6  1  0
M  ISO  3   1   2   3   2   4   2
M  END
>  <placement_batch>  (1) 
CpKRS_FrAncestor_bulkdock_iter2_cluster_best5

>  <name>  (1) 
BMFZKBUDQUCZNE-BMSJAHLVSA-N-P40

>  <HIPPO Pose ID>  (1) 
52565

>  <inchikey>  (1) 
BMFZKBUDQUCZNE-UHFFFAOYSA-N

>  <inspiration_score>  (1) 
0.732

>  <tags>  (1) 
CpKRS_FrAncestor_bulkdock_iter2,CpKRS_FrAncestor_bulkdock_iter2_cluster_best5,BulkDock Fragalysis export,fragmenstein_placed,CpKRS_FrAncestor_bulkdock_iter2_exported

>  <distance_score>  (1) 
0.412741

>  <ref_pdb>  (1) 
x0540b

>  <alias>  (1) 
BMFZKBUDQUCZNE-BMSJAHLVSA-N-P40

>  <subsites>  (1) 


>  <smiles>  (1) 
[2H]C([2H])([2H])Oc1cc(CNC)ccn1

>  <HIPPO Compound ID>  (1) 
447493

>  <ref_mols>  (1) 
x0602b

>  <energy_score>  (1) 
-62.606553

$$$$
VWBCUYWPDAPXRV-BMSJAHLVSA-N-P51
     RDKit          3D

 15 15  0  0  0  0  0  0  0  0999 V2000
    3.8132  -11.7050   23.7436 H   0  0  0  0  0  0  0  0  0  0  0  0
    4.1605  -12.6352   23.2819 C   0  0  0  0  0  0  0  0  0  0  0  0
    3.3271  -13.1826   22.8331 H   0  0  0  0  0  0  0  0  0  0  0  0
    4.8512  -12.3674   22.4761 H   0  0  0  0  0  0  0  0  0  0  0  0
    4.8704  -13.4282   24.2172 O   0  0  0  0  0  0  0  0  0  0  0  0
    4.1626  -13.9693   25.2517 C   0  0  0  0  0  0  0  0  0  0  0  0
    2.8311  -13.6923   25.5489 C   0  0  0  0  0  0  0  0  0  0  0  0
    2.2280  -14.2541   26.6939 C   0  0  0  0  0  0  0  0  0  0  0  0
    0.8118  -13.8825   27.0060 C   0  0  0  0  0  0  0  0  0  0  0  0
    3.0082  -15.0791   27.5138 C   0  0  0  0  0  0  0  0  0  0  0  0
    2.6262  -15.6454   28.8309 C   0  0  0  0  0  0  0  0  0  0  0  0
    3.1116  -16.6434   29.3359 O   0  0  0  0  0  0  0  0  0  0  0  0
    1.7343  -14.9050   29.5187 O   0  0  0  0  0  0  0  0  0  0  0  0
    4.3146  -15.3299   27.1079 C   0  0  0  0  0  0  0  0  0  0  0  0
    4.9104  -14.7881   26.0177 N   0  0  0  0  0  0  0  0  0  0  0  0
  1  2  1  0
  2  3  1  0
  2  4  1  0
  2  5  1  0
  5  6  1  0
  6  7  2  0
  7  8  1  0
  8  9  1  0
  8 10  2  0
 10 11  1  0
 11 12  2  0
 11 13  1  0
 10 14  1  0
 14 15  2  0
 15  6  1  0
M  ISO  3   1   2   3   2   4   2
M  END
>  <placement_batch>  (2) 
CpKRS_FrAncestor_bulkdock_iter2_cluster_best5

>  <name>  (2) 
VWBCUYWPDAPXRV-BMSJAHLVSA-N-P51

>  <HIPPO Pose ID>  (2) 
52571

>  <inchikey>  (2) 
VWBCUYWPDAPXRV-UHFFFAOYSA-N

>  <inspiration_score>  (2) 
0.816

>  <tags>  (2) 
CpKRS_FrAncestor_bulkdock_iter2,CpKRS_FrAncestor_bulkdock_iter2_cluster_best5,BulkDock Fragalysis export,fragmenstein_placed,CpKRS_FrAncestor_bulkdock_iter2_exported

>  <distance_score>  (2) 
0.467083

>  <ref_pdb>  (2) 
x0540b

>  <alias>  (2) 
VWBCUYWPDAPXRV-BMSJAHLVSA-N-P51

>  <subsites>  (2) 


>  <smiles>  (2) 
[2H]C([2H])([2H])Oc1cc(C)c(C(=O)O)cn1

>  <HIPPO Compound ID>  (2) 
33213

>  <ref_mols>  (2) 
x0634b

>  <energy_score>  (2) 
-12.915874

$$$$
NVDJVEQITUWZDT-FIBGUPNXSA-N-P50
     RDKit          3D

 14 14  0  0  0  0  0  0  0  0999 V2000
    2.2537  -11.7157   24.3698 H   0  0  0  0  0  0  0  0  0  0  0  0
    2.0203  -12.5076   23.6490 C   0  0  0  0  0  0  0  0  0  0  0  0
    0.9458  -12.7175   23.6338 H   0  0  0  0  0  0  0  0  0  0  0  0
    2.3105  -12.1465   22.6594 H   0  0  0  0  0  0  0  0  0  0  0  0
    2.7635  -13.6911   23.9061 O   0  0  0  0  0  0  0  0  0  0  0  0
    2.6537  -14.1386   25.2022 C   0  0  0  0  0  0  0  0  0  0  0  0
    3.5800  -15.0916   25.5968 C   0  0  0  0  0  0  0  0  0  0  0  0
    3.5285  -15.5674   26.8998 C   0  0  0  0  0  0  0  0  0  0  0  0
    2.5434  -15.0839   27.7572 C   0  0  0  0  0  0  0  0  0  0  0  0
    2.4996  -15.5668   29.1436 C   0  0  0  0  0  0  0  0  0  0  0  0
    3.1925  -16.4656   29.5857 O   0  0  0  0  0  0  0  0  0  0  0  0
    1.6085  -14.9141   29.9076 O   0  0  0  0  0  0  0  0  0  0  0  0
    1.6423  -14.1518   27.2629 C   0  0  0  0  0  0  0  0  0  0  0  0
    1.6658  -13.6718   25.9964 N   0  0  0  0  0  0  0  0  0  0  0  0
  1  2  1  0
  2  3  1  0
  2  4  1  0
  2  5  1  0
  5  6  1  0
  6  7  2  0
  7  8  1  0
  8  9  2  0
  9 10  1  0
 10 11  2  0
 10 12  1  0
  9 13  1  0
 13 14  2  0
 14  6  1  0
M  ISO  3   1   2   3   2   4   2
M  END
>  <placement_batch>  (3) 
CpKRS_FrAncestor_bulkdock_iter2_cluster_best5

>  <name>  (3) 
NVDJVEQITUWZDT-FIBGUPNXSA-N-P50

>  <HIPPO Pose ID>  (3) 
52580

>  <inchikey>  (3) 
NVDJVEQITUWZDT-UHFFFAOYSA-N

>  <inspiration_score>  (3) 
0.727

>  <tags>  (3) 
CpKRS_FrAncestor_bulkdock_iter2,CpKRS_FrAncestor_bulkdock_iter2_cluster_best5,BulkDock Fragalysis export,fragmenstein_placed,CpKRS_FrAncestor_bulkdock_iter2_exported

>  <distance_score>  (3) 
0.69196

>  <ref_pdb>  (3) 
x0540b

>  <alias>  (3) 
NVDJVEQITUWZDT-FIBGUPNXSA-N-P50

>  <subsites>  (3) 


>  <smiles>  (3) 
[2H]C([2H])([2H])Oc1ccc(C(=O)O)cn1

>  <HIPPO Compound ID>  (3) 
33289

>  <ref_mols>  (3) 
x0634a

>  <energy_score>  (3) 
-18.097296

$$$$
FUBFUAARMGZWPE-FIBGUPNXSA-N-P50
     RDKit          3D

 15 15  0  0  0  0  0  0  0  0999 V2000
    2.3610  -12.2694   22.5880 H   0  0  0  0  0  0  0  0  0  0  0  0
    2.0774  -12.5876   23.5941 C   0  0  0  0  0  0  0  0  0  0  0  0
    0.9870  -12.6817   23.6277 H   0  0  0  0  0  0  0  0  0  0  0  0
    2.4225  -11.8168   24.2920 H   0  0  0  0  0  0  0  0  0  0  0  0
    2.6978  -13.8439   23.8353 O   0  0  0  0  0  0  0  0  0  0  0  0
    2.5988  -14.2836   25.1359 C   0  0  0  0  0  0  0  0  0  0  0  0
    1.7933  -13.6088   25.9936 N   0  0  0  0  0  0  0  0  0  0  0  0
    1.7647  -14.0514   27.2734 C   0  0  0  0  0  0  0  0  0  0  0  0
    2.5022  -15.1296   27.7357 C   0  0  0  0  0  0  0  0  0  0  0  0
    2.4870  -15.5650   29.1369 C   0  0  0  0  0  0  0  0  0  0  0  0
    3.1423  -16.4947   29.5712 O   0  0  0  0  0  0  0  0  0  0  0  0
    1.6587  -14.8543   29.9177 O   0  0  0  0  0  0  0  0  0  0  0  0
    3.2836  -15.8336   26.8249 C   0  0  0  0  0  0  0  0  0  0  0  0
    3.3169  -15.4221   25.4996 C   0  0  0  0  0  0  0  0  0  0  0  0
    4.1573  -16.4026   24.3651 Cl  0  0  0  0  0  0  0  0  0  0  0  0
  1  2  1  0
  2  3  1  0
  2  4  1  0
  2  5  1  0
  5  6  1  0
  6  7  2  0
  7  8  1  0
  8  9  2  0
  9 10  1  0
 10 11  2  0
 10 12  1  0
  9 13  1  0
 13 14  2  0
 14 15  1  0
 14  6  1  0
M  ISO  3   1   2   3   2   4   2
M  END
>  <placement_batch>  (4) 
CpKRS_FrAncestor_bulkdock_iter2_cluster_best5

>  <name>  (4) 
FUBFUAARMGZWPE-FIBGUPNXSA-N-P50

>  <HIPPO Pose ID>  (4) 
52584

>  <inchikey>  (4) 
FUBFUAARMGZWPE-UHFFFAOYSA-N

>  <inspiration_score>  (4) 
0.67

>  <tags>  (4) 
CpKRS_FrAncestor_bulkdock_iter2,CpKRS_FrAncestor_bulkdock_iter2_cluster_best5,BulkDock Fragalysis export,fragmenstein_placed,CpKRS_FrAncestor_bulkdock_iter2_exported

>  <distance_score>  (4) 
0.800723

>  <ref_pdb>  (4) 
x0540b

>  <alias>  (4) 
FUBFUAARMGZWPE-FIBGUPNXSA-N-P50

>  <subsites>  (4) 


>  <smiles>  (4) 
[2H]C([2H])([2H])Oc1ncc(C(=O)O)cc1Cl

>  <HIPPO Compound ID>  (4) 
33594

>  <ref_mols>  (4) 
x0634a

>  <energy_score>  (4) 
-16.749515

$$$$
REWJQZMDDHQQCI-UHFFFAOYSA-N-P21
     RDKit          3D

 14 14  0  0  0  0  0  0  0  0999 V2000
   25.3966    8.8515   25.0310 C   0  0  0  0  0  0  0  0  0  0  0  0
   24.9505    7.4466   25.3324 C   0  0  0  0  0  0  0  0  0  0  0  0
   25.6731    6.6001   26.1976 C   0  0  0  0  0  0  0  0  0  0  0  0
   27.2130    7.1667   27.1535 Br  0  0  0  0  0  0  0  0  0  0  0  0
   25.2739    5.2802   26.4131 C   0  0  0  0  0  0  0  0  0  0  0  0
   24.1468    4.7864   25.7750 C   0  0  0  0  0  0  0  0  0  0  0  0
   23.3927    5.6192   24.9527 C   0  0  0  0  0  0  0  0  0  0  0  0
   23.7621    6.9546   24.7353 C   0  0  0  0  0  0  0  0  0  0  0  0
   22.8632    7.8135   23.8655 C   0  0  0  0  0  0  0  0  0  0  0  0
   22.1911    8.7655   24.6762 O   0  0  0  0  0  0  0  0  0  0  0  0
   21.9041   10.2083   24.0008 S   0  0  0  0  0  0  0  0  0  0  0  0
   20.9106   10.9555   25.1206 N   0  0  0  0  0  0  0  0  0  0  0  0
   23.1435   10.9422   23.9566 O   0  0  0  0  0  0  0  0  0  0  0  0
   21.0959   10.0384   22.8186 O   0  0  0  0  0  0  0  0  0  0  0  0
  1  2  1  0
  2  3  2  0
  3  4  1  0
  3  5  1  0
  5  6  2  0
  6  7  1  0
  7  8  2  0
  8  9  1  0
  9 10  1  0
 10 11  1  0
 11 12  1  0
 11 13  2  0
 11 14  2  0
  8  2  1  0
M  END
>  <placement_batch>  (5) 
CpKRS_FrAncestor_bulkdock_iter2_cluster_best5

>  <name>  (5) 
REWJQZMDDHQQCI-UHFFFAOYSA-N-P21

>  <HIPPO Pose ID>  (5) 
52599

>  <inchikey>  (5) 
REWJQZMDDHQQCI-UHFFFAOYSA-N

>  <inspiration_score>  (5) 
0.826

>  <tags>  (5) 
CpKRS_FrAncestor_bulkdock_iter2,CpKRS_FrAncestor_bulkdock_iter2_cluster_best5,BulkDock Fragalysis export,fragmenstein_placed,CpKRS_FrAncestor_bulkdock_iter2_exported

>  <distance_score>  (5) 
0.469119

>  <ref_pdb>  (5) 
x0540b

>  <alias>  (5) 
REWJQZMDDHQQCI-UHFFFAOYSA-N-P21

>  <subsites>  (5) 


>  <smiles>  (5) 
Cc1c(Br)cccc1COS(N)(=O)=O

>  <HIPPO Compound ID>  (5) 
447496

>  <ref_mols>  (5) 
x0472a

>  <energy_score>  (5) 
-22.491859

$$$$
IZKNTCKTFCFTMJ-UHFFFAOYSA-N-P38
     RDKit          3D

 16 16  0  0  0  0  0  0  0  0999 V2000
    4.9162  -14.7168   26.1069 C   0  0  0  0  0  0  0  0  0  0  0  0
    3.4997  -14.2264   26.2178 C   0  0  0  0  0  0  0  0  0  0  0  0
    2.6597  -14.7762   27.2087 C   0  0  0  0  0  0  0  0  0  0  0  0
    3.2333  -16.0883   28.4598 Br  0  0  0  0  0  0  0  0  0  0  0  0
    1.3372  -14.3643   27.3436 C   0  0  0  0  0  0  0  0  0  0  0  0
    0.8013  -13.4475   26.4535 C   0  0  0  0  0  0  0  0  0  0  0  0
    1.5707  -12.9311   25.4082 C   0  0  0  0  0  0  0  0  0  0  0  0
    0.9549  -11.9420   24.6037 N   0  0  0  0  0  0  0  0  0  0  0  0
    2.9532  -13.2603   25.3260 C   0  0  0  0  0  0  0  0  0  0  0  0
    3.7997  -12.6231   24.2269 C   0  0  0  0  0  0  0  0  0  0  0  0
    4.5776  -13.2727   23.6560 O   0  0  0  0  0  0  0  0  0  0  0  0
    3.3676  -11.1623   24.0075 N   0  0  0  0  0  0  0  0  0  0  0  0
    3.7319  -10.2273   22.9838 C   0  0  0  0  0  0  0  0  0  0  0  0
    5.1733   -9.7463   23.0567 C   0  0  0  0  0  0  0  0  0  0  0  0
    5.5350   -9.0652   21.7408 C   0  0  0  0  0  0  0  0  0  0  0  0
    5.3934   -8.7852   24.2212 C   0  0  0  0  0  0  0  0  0  0  0  0
  1  2  1  0
  2  3  2  0
  3  4  1  0
  3  5  1  0
  5  6  2  0
  6  7  1  0
  7  8  1  0
  7  9  2  0
  9 10  1  0
 10 11  2  0
 10 12  1  0
 12 13  1  0
 13 14  1  0
 14 15  1  0
 14 16  1  0
  9  2  1  0
M  END
>  <placement_batch>  (6) 
CpKRS_FrAncestor_bulkdock_iter2_cluster_best5

>  <name>  (6) 
IZKNTCKTFCFTMJ-UHFFFAOYSA-N-P38

>  <HIPPO Pose ID>  (6) 
52602

>  <inchikey>  (6) 
IZKNTCKTFCFTMJ-UHFFFAOYSA-N

>  <inspiration_score>  (6) 
0.679

>  <tags>  (6) 
CpKRS_FrAncestor_bulkdock_iter2,CpKRS_FrAncestor_bulkdock_iter2_cluster_best5,BulkDock Fragalysis export,fragmenstein_placed,CpKRS_FrAncestor_bulkdock_iter2_exported

>  <distance_score>  (6) 
0.697132

>  <ref_pdb>  (6) 
x0540b

>  <alias>  (6) 
IZKNTCKTFCFTMJ-UHFFFAOYSA-N-P38

>  <subsites>  (6) 


>  <smiles>  (6) 
Cc1c(Br)ccc(N)c1C(=O)NCC(C)C

>  <HIPPO Compound ID>  (6) 
126327

>  <ref_mols>  (6) 
x0555a

>  <energy_score>  (6) 
-38.524089

$$$$
AVISOZNLOKBAAB-UHFFFAOYSA-N-P23
     RDKit          3D

 14 14  0  0  0  0  0  0  0  0999 V2000
   24.9787    3.9272   26.1399 C   0  0  0  0  0  0  0  0  0  0  0  0
   24.7861    5.4005   25.9362 C   0  0  0  0  0  0  0  0  0  0  0  0
   25.8628    6.2857   26.0314 C   0  0  0  0  0  0  0  0  0  0  0  0
   25.6664    7.6437   25.7914 C   0  0  0  0  0  0  0  0  0  0  0  0
   27.1339    8.8336   25.8966 Br  0  0  0  0  0  0  0  0  0  0  0  0
   24.4008    8.1359   25.4717 C   0  0  0  0  0  0  0  0  0  0  0  0
   23.3073    7.2666   25.3736 C   0  0  0  0  0  0  0  0  0  0  0  0
   21.9108    7.7798   25.1125 C   0  0  0  0  0  0  0  0  0  0  0  0
   21.8791    8.6657   24.0143 O   0  0  0  0  0  0  0  0  0  0  0  0
   21.5670   10.2332   24.2456 S   0  0  0  0  0  0  0  0  0  0  0  0
   20.4496   10.5516   23.0381 N   0  0  0  0  0  0  0  0  0  0  0  0
   20.8390   10.4279   25.4777 O   0  0  0  0  0  0  0  0  0  0  0  0
   22.7540   10.9880   23.9294 O   0  0  0  0  0  0  0  0  0  0  0  0
   23.5239    5.8972   25.5854 C   0  0  0  0  0  0  0  0  0  0  0  0
  1  2  1  0
  2  3  2  0
  3  4  1  0
  4  5  1  0
  4  6  2  0
  6  7  1  0
  7  8  1  0
  8  9  1  0
  9 10  1  0
 10 11  1  0
 10 12  2  0
 10 13  2  0
  7 14  2  0
 14  2  1  0
M  END
>  <placement_batch>  (7) 
CpKRS_FrAncestor_bulkdock_iter2_cluster_best5

>  <name>  (7) 
AVISOZNLOKBAAB-UHFFFAOYSA-N-P23

>  <HIPPO Pose ID>  (7) 
52661

>  <inchikey>  (7) 
AVISOZNLOKBAAB-UHFFFAOYSA-N

>  <inspiration_score>  (7) 
0.803

>  <tags>  (7) 
CpKRS_FrAncestor_bulkdock_iter2,CpKRS_FrAncestor_bulkdock_iter2_cluster_best5,BulkDock Fragalysis export,fragmenstein_placed,CpKRS_FrAncestor_bulkdock_iter2_exported

>  <distance_score>  (7) 
0.322747

>  <ref_pdb>  (7) 
x0540b

>  <alias>  (7) 
AVISOZNLOKBAAB-UHFFFAOYSA-N-P23

>  <subsites>  (7) 


>  <smiles>  (7) 
Cc1cc(Br)cc(COS(N)(=O)=O)c1

>  <HIPPO Compound ID>  (7) 
447504

>  <ref_mols>  (7) 
x0472c

>  <energy_score>  (7) 
-31.844181

$$$$
BGHYRGKPOIVQBU-UHFFFAOYSA-N-P30
     RDKit          3D

 19 20  0  0  0  0  0  0  0  0999 V2000
    4.4933  -12.4165   22.3715 C   0  0  0  0  0  0  0  0  0  0  0  0
    4.6402  -11.1027   23.0729 C   0  0  0  0  0  0  0  0  0  0  0  0
    5.1131  -10.0514   22.3075 C   0  0  0  0  0  0  0  0  0  0  0  0
    5.1960   -8.7999   22.8790 C   0  0  0  0  0  0  0  0  0  0  0  0
    5.5534   -7.3788   21.7939 Br  0  0  0  0  0  0  0  0  0  0  0  0
    4.8673   -8.5504   24.1917 C   0  0  0  0  0  0  0  0  0  0  0  0
    5.0173   -7.3282   24.7195 F   0  0  0  0  0  0  0  0  0  0  0  0
    4.3379   -9.5604   24.9443 C   0  0  0  0  0  0  0  0  0  0  0  0
    4.2794  -10.8459   24.4055 C   0  0  0  0  0  0  0  0  0  0  0  0
    3.8915  -11.8323   25.2809 N   0  0  0  0  0  0  0  0  0  0  0  0
    4.2314  -13.3259   25.3116 C   0  0  0  0  0  0  0  0  0  0  0  0
    4.9533  -13.9467   24.6486 O   0  0  0  0  0  0  0  0  0  0  0  0
    3.4619  -13.9964   26.3800 C   0  0  0  0  0  0  0  0  0  0  0  0
    2.1268  -13.6522   26.5819 C   0  0  0  0  0  0  0  0  0  0  0  0
    1.4782  -14.2281   27.6485 C   0  0  0  0  0  0  0  0  0  0  0  0
    2.0290  -15.1335   28.4794 N   0  0  0  0  0  0  0  0  0  0  0  0
    3.3104  -15.4804   28.2155 C   0  0  0  0  0  0  0  0  0  0  0  0
    4.0631  -14.9462   27.1896 C   0  0  0  0  0  0  0  0  0  0  0  0
    5.8557  -15.4586   27.0202 Br  0  0  0  0  0  0  0  0  0  0  0  0
  1  2  1  0
  2  3  2  0
  3  4  1  0
  4  5  1  0
  4  6  2  0
  6  7  1  0
  6  8  1  0
  8  9  2  0
  9 10  1  0
 10 11  1  0
 11 12  2  0
 11 13  1  0
 13 14  2  0
 14 15  1  0
 15 16  2  0
 16 17  1  0
 17 18  2  0
 18 19  1  0
  9  2  1  0
 18 13  1  0
M  END
>  <placement_batch>  (8) 
CpKRS_FrAncestor_bulkdock_iter2_cluster_best5

>  <name>  (8) 
BGHYRGKPOIVQBU-UHFFFAOYSA-N-P30

>  <HIPPO Pose ID>  (8) 
52662

>  <inchikey>  (8) 
BGHYRGKPOIVQBU-UHFFFAOYSA-N

>  <inspiration_score>  (8) 
0.848

>  <tags>  (8) 
CpKRS_FrAncestor_bulkdock_iter2,CpKRS_FrAncestor_bulkdock_iter2_cluster_best5,BulkDock Fragalysis export,fragmenstein_placed,CpKRS_FrAncestor_bulkdock_iter2_exported

>  <distance_score>  (8) 
0.565172

>  <ref_pdb>  (8) 
x0540b

>  <alias>  (8) 
BGHYRGKPOIVQBU-UHFFFAOYSA-N-P30

>  <subsites>  (8) 


>  <smiles>  (8) 
Cc1cc(Br)c(F)cc1NC(=O)c1ccncc1Br

>  <HIPPO Compound ID>  (8) 
158033

>  <ref_mols>  (8) 
x0485a

>  <energy_score>  (8) 
-12.013301

$$$$
LDXZBVVYAOJUFQ-UHFFFAOYSA-N-P22
     RDKit          3D

 14 14  0  0  0  0  0  0  0  0999 V2000
   25.7076    9.3225   24.9430 C   0  0  0  0  0  0  0  0  0  0  0  0
   25.3738    7.9162   25.3649 C   0  0  0  0  0  0  0  0  0  0  0  0
   26.2676    7.2422   26.2138 C   0  0  0  0  0  0  0  0  0  0  0  0
   26.0377    5.9231   26.5884 C   0  0  0  0  0  0  0  0  0  0  0  0
   24.9140    5.2627   26.1094 C   0  0  0  0  0  0  0  0  0  0  0  0
   24.6878    3.4467   26.5551 Br  0  0  0  0  0  0  0  0  0  0  0  0
   23.9926    5.9196   25.2930 C   0  0  0  0  0  0  0  0  0  0  0  0
   24.2074    7.2579   24.9136 C   0  0  0  0  0  0  0  0  0  0  0  0
   23.1809    7.9585   24.0494 C   0  0  0  0  0  0  0  0  0  0  0  0
   22.3310    8.7240   24.8836 O   0  0  0  0  0  0  0  0  0  0  0  0
   21.8346   10.1756   24.3788 S   0  0  0  0  0  0  0  0  0  0  0  0
   20.8325    9.8392   23.0791 N   0  0  0  0  0  0  0  0  0  0  0  0
   22.9342   10.9335   23.8324 O   0  0  0  0  0  0  0  0  0  0  0  0
   20.9476   10.7435   25.3714 O   0  0  0  0  0  0  0  0  0  0  0  0
  1  2  1  0
  2  3  2  0
  3  4  1  0
  4  5  2  0
  5  6  1  0
  5  7  1  0
  7  8  2  0
  8  9  1  0
  9 10  1  0
 10 11  1  0
 11 12  1  0
 11 13  2  0
 11 14  2  0
  8  2  1  0
M  END
>  <placement_batch>  (9) 
CpKRS_FrAncestor_bulkdock_iter2_cluster_best5

>  <name>  (9) 
LDXZBVVYAOJUFQ-UHFFFAOYSA-N-P22

>  <HIPPO Pose ID>  (9) 
52695

>  <inchikey>  (9) 
LDXZBVVYAOJUFQ-UHFFFAOYSA-N

>  <inspiration_score>  (9) 
0.892

>  <tags>  (9) 
CpKRS_FrAncestor_bulkdock_iter2,CpKRS_FrAncestor_bulkdock_iter2_cluster_best5,BulkDock Fragalysis export,fragmenstein_placed,CpKRS_FrAncestor_bulkdock_iter2_exported

>  <distance_score>  (9) 
0.434354

>  <ref_pdb>  (9) 
x0540b

>  <alias>  (9) 
LDXZBVVYAOJUFQ-UHFFFAOYSA-N-P22

>  <subsites>  (9) 


>  <smiles>  (9) 
Cc1ccc(Br)cc1COS(N)(=O)=O

>  <HIPPO Compound ID>  (9) 
447512

>  <ref_mols>  (9) 
x0472b

>  <energy_score>  (9) 
-29.750627

$$$$
DVYZMXOXCZULPN-UHFFFAOYSA-N-P30
     RDKit          3D

 18 19  0  0  0  0  0  0  0  0999 V2000
    4.6885  -12.1890   22.1388 C   0  0  0  0  0  0  0  0  0  0  0  0
    4.8864  -10.8666   22.8182 C   0  0  0  0  0  0  0  0  0  0  0  0
    5.3862   -9.8044   22.0504 C   0  0  0  0  0  0  0  0  0  0  0  0
    5.6077   -8.5570   22.6186 C   0  0  0  0  0  0  0  0  0  0  0  0
    5.3265   -8.3636   23.9613 C   0  0  0  0  0  0  0  0  0  0  0  0
    5.8619   -6.7741   24.8108 Br  0  0  0  0  0  0  0  0  0  0  0  0
    4.7245   -9.3649   24.7112 C   0  0  0  0  0  0  0  0  0  0  0  0
    4.5626  -10.6366   24.1619 C   0  0  0  0  0  0  0  0  0  0  0  0
    4.0514  -11.6298   24.9895 N   0  0  0  0  0  0  0  0  0  0  0  0
    4.4602  -13.1105   25.1502 C   0  0  0  0  0  0  0  0  0  0  0  0
    5.2378  -13.7482   24.5596 O   0  0  0  0  0  0  0  0  0  0  0  0
    3.6727  -13.8076   26.2125 C   0  0  0  0  0  0  0  0  0  0  0  0
    4.3481  -14.8220   26.9062 C   0  0  0  0  0  0  0  0  0  0  0  0
    3.6907  -15.4972   27.9182 C   0  0  0  0  0  0  0  0  0  0  0  0
    2.4269  -15.2279   28.2988 N   0  0  0  0  0  0  0  0  0  0  0  0
    1.7887  -14.2762   27.5829 C   0  0  0  0  0  0  0  0  0  0  0  0
    2.3372  -13.5629   26.5255 C   0  0  0  0  0  0  0  0  0  0  0  0
    1.1612  -12.4197   25.5782 Br  0  0  0  0  0  0  0  0  0  0  0  0
  1  2  1  0
  2  3  2  0
  3  4  1  0
  4  5  2  0
  5  6  1  0
  5  7  1  0
  7  8  2  0
  8  9  1  0
  9 10  1  0
 10 11  2  0
 10 12  1  0
 12 13  2  0
 13 14  1  0
 14 15  2  0
 15 16  1  0
 16 17  2  0
 17 18  1  0
  8  2  1  0
 17 12  1  0
M  END
>  <placement_batch>  (10) 
CpKRS_FrAncestor_bulkdock_iter2_cluster_best5

>  <name>  (10) 
DVYZMXOXCZULPN-UHFFFAOYSA-N-P30

>  <HIPPO Pose ID>  (10) 
52697

>  <inchikey>  (10) 
DVYZMXOXCZULPN-UHFFFAOYSA-N

>  <inspiration_score>  (10) 
0.927

>  <tags>  (10) 
CpKRS_FrAncestor_bulkdock_iter2,CpKRS_FrAncestor_bulkdock_iter2_cluster_best5,BulkDock Fragalysis export,fragmenstein_placed,CpKRS_FrAncestor_bulkdock_iter2_exported

>  <distance_score>  (10) 
0.355676

>  <ref_pdb>  (10) 
x0540b

>  <alias>  (10) 
DVYZMXOXCZULPN-UHFFFAOYSA-N-P30

>  <subsites>  (10) 


>  <smiles>  (10) 
Cc1ccc(Br)cc1NC(=O)c1ccncc1Br

>  <HIPPO Compound ID>  (10) 
157243

>  <ref_mols>  (10) 
x0485a

>  <energy_score>  (10) 
-15.413245

$$$$
FQPMNZWYRPDPHA-UHFFFAOYSA-N-P22
     RDKit          3D

 14 14  0  0  0  0  0  0  0  0999 V2000
   24.6863    3.7292   26.2508 C   0  0  0  0  0  0  0  0  0  0  0  0
   24.8907    5.1939   26.0087 C   0  0  0  0  0  0  0  0  0  0  0  0
   26.0186    5.8345   26.5214 C   0  0  0  0  0  0  0  0  0  0  0  0
   26.2673    7.1668   26.2052 C   0  0  0  0  0  0  0  0  0  0  0  0
   25.3899    7.8737   25.3752 C   0  0  0  0  0  0  0  0  0  0  0  0
   25.9062    9.6426   24.9025 Br  0  0  0  0  0  0  0  0  0  0  0  0
   24.2228    7.2682   24.8835 C   0  0  0  0  0  0  0  0  0  0  0  0
   23.2158    8.0065   24.0334 C   0  0  0  0  0  0  0  0  0  0  0  0
   22.3712    8.7616   24.8819 O   0  0  0  0  0  0  0  0  0  0  0  0
   21.8174   10.1891   24.3680 S   0  0  0  0  0  0  0  0  0  0  0  0
   20.8159    9.8096   23.0802 N   0  0  0  0  0  0  0  0  0  0  0  0
   22.8813   10.9817   23.8013 O   0  0  0  0  0  0  0  0  0  0  0  0
   20.9271   10.7385   25.3685 O   0  0  0  0  0  0  0  0  0  0  0  0
   23.9902    5.9177   25.2101 C   0  0  0  0  0  0  0  0  0  0  0  0
  1  2  1  0
  2  3  2  0
  3  4  1  0
  4  5  2  0
  5  6  1  0
  5  7  1  0
  7  8  1  0
  8  9  1  0
  9 10  1  0
 10 11  1  0
 10 12  2  0
 10 13  2  0
  7 14  2  0
 14  2  1  0
M  END
>  <placement_batch>  (11) 
CpKRS_FrAncestor_bulkdock_iter2_cluster_best5

>  <name>  (11) 
FQPMNZWYRPDPHA-UHFFFAOYSA-N-P22

>  <HIPPO Pose ID>  (11) 
52733

>  <inchikey>  (11) 
FQPMNZWYRPDPHA-UHFFFAOYSA-N

>  <inspiration_score>  (11) 
0.792

>  <tags>  (11) 
CpKRS_FrAncestor_bulkdock_iter2,CpKRS_FrAncestor_bulkdock_iter2_cluster_best5,BulkDock Fragalysis export,fragmenstein_placed,CpKRS_FrAncestor_bulkdock_iter2_exported

>  <distance_score>  (11) 
0.412712

>  <ref_pdb>  (11) 
x0540b

>  <alias>  (11) 
FQPMNZWYRPDPHA-UHFFFAOYSA-N-P22

>  <subsites>  (11) 


>  <smiles>  (11) 
Cc1ccc(Br)c(COS(N)(=O)=O)c1

>  <HIPPO Compound ID>  (11) 
447515

>  <ref_mols>  (11) 
x0472b

>  <energy_score>  (11) 
-29.09656

$$$$
RZEBGJKCTQOVJJ-UHFFFAOYSA-N-P28
     RDKit          3D

 18 19  0  0  0  0  0  0  0  0999 V2000
    4.8405    2.0822   44.2245 C   0  0  0  0  0  0  0  0  0  0  0  0
    4.0280    3.2138   44.7687 C   0  0  0  0  0  0  0  0  0  0  0  0
    3.5855    3.2340   46.0955 C   0  0  0  0  0  0  0  0  0  0  0  0
    2.8319    4.3069   46.5664 C   0  0  0  0  0  0  0  0  0  0  0  0
    2.5653    5.3846   45.7233 C   0  0  0  0  0  0  0  0  0  0  0  0
    1.4719    6.7879   46.3560 Br  0  0  0  0  0  0  0  0  0  0  0  0
    3.0166    5.3788   44.4018 C   0  0  0  0  0  0  0  0  0  0  0  0
    2.8676    6.4945   43.5901 N   0  0  0  0  0  0  0  0  0  0  0  0
    2.7819    6.6122   42.0519 C   0  0  0  0  0  0  0  0  0  0  0  0
    2.7457    5.7838   41.2308 O   0  0  0  0  0  0  0  0  0  0  0  0
    2.8573    8.0365   41.6456 C   0  0  0  0  0  0  0  0  0  0  0  0
    1.8883    8.9240   42.1187 C   0  0  0  0  0  0  0  0  0  0  0  0
    1.9899   10.2500   41.7421 C   0  0  0  0  0  0  0  0  0  0  0  0
    2.9667   10.7309   40.9426 N   0  0  0  0  0  0  0  0  0  0  0  0
    3.8905    9.8415   40.4973 C   0  0  0  0  0  0  0  0  0  0  0  0
    3.8861    8.4937   40.8196 C   0  0  0  0  0  0  0  0  0  0  0  0
    5.2942    7.4082   40.1754 Br  0  0  0  0  0  0  0  0  0  0  0  0
    3.7103    4.2758   43.9157 C   0  0  0  0  0  0  0  0  0  0  0  0
  1  2  1  0
  2  3  2  0
  3  4  1  0
  4  5  2  0
  5  6  1  0
  5  7  1  0
  7  8  1  0
  8  9  1  0
  9 10  2  0
  9 11  1  0
 11 12  2  0
 12 13  1  0
 13 14  2  0
 14 15  1  0
 15 16  2  0
 16 17  1  0
  7 18  2  0
 18  2  1  0
 16 11  1  0
M  END
>  <placement_batch>  (12) 
CpKRS_FrAncestor_bulkdock_iter2_cluster_best5

>  <name>  (12) 
RZEBGJKCTQOVJJ-UHFFFAOYSA-N-P28

>  <HIPPO Pose ID>  (12) 
52747

>  <inchikey>  (12) 
RZEBGJKCTQOVJJ-UHFFFAOYSA-N

>  <inspiration_score>  (12) 
0.848

>  <tags>  (12) 
CpKRS_FrAncestor_bulkdock_iter2,CpKRS_FrAncestor_bulkdock_iter2_cluster_best5,BulkDock Fragalysis export,fragmenstein_placed,CpKRS_FrAncestor_bulkdock_iter2_exported

>  <distance_score>  (12) 
0.403771

>  <ref_pdb>  (12) 
x0540b

>  <alias>  (12) 
RZEBGJKCTQOVJJ-UHFFFAOYSA-N-P28

>  <subsites>  (12) 


>  <smiles>  (12) 
Cc1ccc(Br)c(NC(=O)c2ccncc2Br)c1

>  <HIPPO Compound ID>  (12) 
157941

>  <ref_mols>  (12) 
x0485b

>  <energy_score>  (12) 
-13.336479

$$$$
CLBBNKGNDUQLGD-UHFFFAOYSA-N-P29
     RDKit          3D

 17 18  0  0  0  0  0  0  0  0999 V2000
    4.7417    2.0299   44.0472 C   0  0  0  0  0  0  0  0  0  0  0  0
    4.0286    3.1771   44.6954 C   0  0  0  0  0  0  0  0  0  0  0  0
    3.6905    3.1555   46.0506 C   0  0  0  0  0  0  0  0  0  0  0  0
    3.0195    4.2311   46.6222 C   0  0  0  0  0  0  0  0  0  0  0  0
    2.7429    5.3618   45.8526 C   0  0  0  0  0  0  0  0  0  0  0  0
    1.7942    6.7634   46.6876 Br  0  0  0  0  0  0  0  0  0  0  0  0
    3.1136    5.4192   44.5033 C   0  0  0  0  0  0  0  0  0  0  0  0
    2.9493    6.5851   43.7510 N   0  0  0  0  0  0  0  0  0  0  0  0
    3.1907    6.8527   42.2440 C   0  0  0  0  0  0  0  0  0  0  0  0
    3.4905    6.1207   41.3829 O   0  0  0  0  0  0  0  0  0  0  0  0
    3.0160    8.2867   41.8828 C   0  0  0  0  0  0  0  0  0  0  0  0
    3.8538    8.8212   40.9006 C   0  0  0  0  0  0  0  0  0  0  0  0
    3.6386   10.1260   40.5013 C   0  0  0  0  0  0  0  0  0  0  0  0
    2.6633   10.9073   41.0095 N   0  0  0  0  0  0  0  0  0  0  0  0
    1.8797   10.3684   41.9702 C   0  0  0  0  0  0  0  0  0  0  0  0
    2.0086    9.0721   42.4321 C   0  0  0  0  0  0  0  0  0  0  0  0
    3.7082    4.2999   43.9220 C   0  0  0  0  0  0  0  0  0  0  0  0
  1  2  1  0
  2  3  2  0
  3  4  1  0
  4  5  2  0
  5  6  1  0
  5  7  1  0
  7  8  1  0
  8  9  1  0
  9 10  2  0
  9 11  1  0
 11 12  2  0
 12 13  1  0
 13 14  2  0
 14 15  1  0
 15 16  2  0
  7 17  2  0
 17  2  1  0
 16 11  1  0
M  END
>  <placement_batch>  (13) 
CpKRS_FrAncestor_bulkdock_iter2_cluster_best5

>  <name>  (13) 
CLBBNKGNDUQLGD-UHFFFAOYSA-N-P29

>  <HIPPO Pose ID>  (13) 
52751

>  <inchikey>  (13) 
CLBBNKGNDUQLGD-UHFFFAOYSA-N

>  <inspiration_score>  (13) 
0.803

>  <tags>  (13) 
CpKRS_FrAncestor_bulkdock_iter2,CpKRS_FrAncestor_bulkdock_iter2_cluster_best5,BulkDock Fragalysis export,fragmenstein_placed,CpKRS_FrAncestor_bulkdock_iter2_exported

>  <distance_score>  (13) 
0.459437

>  <ref_pdb>  (13) 
x0540b

>  <alias>  (13) 
CLBBNKGNDUQLGD-UHFFFAOYSA-N-P29

>  <subsites>  (13) 


>  <smiles>  (13) 
Cc1ccc(Br)c(NC(=O)c2ccncc2)c1

>  <HIPPO Compound ID>  (13) 
157940

>  <ref_mols>  (13) 
x0485c

>  <energy_score>  (13) 
-14.981397

$$$$
WKIPMARBENEFGH-UHFFFAOYSA-N-P29
     RDKit          3D

 18 19  0  0  0  0  0  0  0  0999 V2000
    4.7280    2.0285   44.0536 C   0  0  0  0  0  0  0  0  0  0  0  0
    4.0174    3.1792   44.6981 C   0  0  0  0  0  0  0  0  0  0  0  0
    3.6851    3.1668   46.0545 C   0  0  0  0  0  0  0  0  0  0  0  0
    3.0232    4.2501   46.6229 C   0  0  0  0  0  0  0  0  0  0  0  0
    2.7507    5.3796   45.8494 C   0  0  0  0  0  0  0  0  0  0  0  0
    1.8053    6.7854   46.6799 Br  0  0  0  0  0  0  0  0  0  0  0  0
    3.1117    5.4255   44.4977 C   0  0  0  0  0  0  0  0  0  0  0  0
    2.9609    6.5853   43.7334 N   0  0  0  0  0  0  0  0  0  0  0  0
    3.1268    6.8151   42.2093 C   0  0  0  0  0  0  0  0  0  0  0  0
    3.3396    6.0547   41.3475 O   0  0  0  0  0  0  0  0  0  0  0  0
    3.0213    8.2592   41.8478 C   0  0  0  0  0  0  0  0  0  0  0  0
    1.9593    9.0087   42.3514 C   0  0  0  0  0  0  0  0  0  0  0  0
    1.8247   10.3158   41.9284 C   0  0  0  0  0  0  0  0  0  0  0  0
    2.6493   10.9013   41.0365 N   0  0  0  0  0  0  0  0  0  0  0  0
    3.6774   10.1579   40.5713 C   0  0  0  0  0  0  0  0  0  0  0  0
    3.9284    8.8434   40.9475 C   0  0  0  0  0  0  0  0  0  0  0  0
    5.0948    8.1159   40.3473 C   0  0  0  0  0  0  0  0  0  0  0  0
    3.6954    4.2979   43.9198 C   0  0  0  0  0  0  0  0  0  0  0  0
  1  2  1  0
  2  3  2  0
  3  4  1  0
  4  5  2  0
  5  6  1  0
  5  7  1  0
  7  8  1  0
  8  9  1  0
  9 10  2  0
  9 11  1  0
 11 12  2  0
 12 13  1  0
 13 14  2  0
 14 15  1  0
 15 16  2  0
 16 17  1  0
  7 18  2  0
 18  2  1  0
 16 11  1  0
M  END
>  <placement_batch>  (14) 
CpKRS_FrAncestor_bulkdock_iter2_cluster_best5

>  <name>  (14) 
WKIPMARBENEFGH-UHFFFAOYSA-N-P29

>  <HIPPO Pose ID>  (14) 
52754

>  <inchikey>  (14) 
WKIPMARBENEFGH-UHFFFAOYSA-N

>  <inspiration_score>  (14) 
0.786

>  <tags>  (14) 
CpKRS_FrAncestor_bulkdock_iter2,CpKRS_FrAncestor_bulkdock_iter2_cluster_best5,BulkDock Fragalysis export,fragmenstein_placed,CpKRS_FrAncestor_bulkdock_iter2_exported

>  <distance_score>  (14) 
0.462152

>  <ref_pdb>  (14) 
x0540b

>  <alias>  (14) 
WKIPMARBENEFGH-UHFFFAOYSA-N-P29

>  <subsites>  (14) 


>  <smiles>  (14) 
Cc1ccc(Br)c(NC(=O)c2ccncc2C)c1

>  <HIPPO Compound ID>  (14) 
152883

>  <ref_mols>  (14) 
x0485c

>  <energy_score>  (14) 
-14.453424

$$$$
AERXIGDRPPOLHV-UHFFFAOYSA-N-P29
     RDKit          3D

 18 19  0  0  0  0  0  0  0  0999 V2000
    4.7438    2.0228   44.0760 C   0  0  0  0  0  0  0  0  0  0  0  0
    4.0304    3.1745   44.7154 C   0  0  0  0  0  0  0  0  0  0  0  0
    3.6720    3.1585   46.0646 C   0  0  0  0  0  0  0  0  0  0  0  0
    2.9977    4.2397   46.6223 C   0  0  0  0  0  0  0  0  0  0  0  0
    2.7364    5.3706   45.8460 C   0  0  0  0  0  0  0  0  0  0  0  0
    1.7933    6.7799   46.6733 Br  0  0  0  0  0  0  0  0  0  0  0  0
    3.1311    5.4240   44.5036 C   0  0  0  0  0  0  0  0  0  0  0  0
    2.9845    6.5829   43.7357 N   0  0  0  0  0  0  0  0  0  0  0  0
    3.3418    6.8599   42.2540 C   0  0  0  0  0  0  0  0  0  0  0  0
    3.7422    6.1408   41.4244 O   0  0  0  0  0  0  0  0  0  0  0  0
    3.1161    8.2766   41.8652 C   0  0  0  0  0  0  0  0  0  0  0  0
    4.0294    8.8741   40.9967 C   0  0  0  0  0  0  0  0  0  0  0  0
    3.7549   10.1511   40.5521 C   0  0  0  0  0  0  0  0  0  0  0  0
    2.6524   10.8436   40.9090 N   0  0  0  0  0  0  0  0  0  0  0  0
    1.7825   10.2516   41.7625 C   0  0  0  0  0  0  0  0  0  0  0  0
    0.5494   11.0205   42.1295 C   0  0  0  0  0  0  0  0  0  0  0  0
    1.9738    8.9681   42.2562 C   0  0  0  0  0  0  0  0  0  0  0  0
    3.7294    4.2983   43.9366 C   0  0  0  0  0  0  0  0  0  0  0  0
  1  2  1  0
  2  3  2  0
  3  4  1  0
  4  5  2  0
  5  6  1  0
  5  7  1  0
  7  8  1  0
  8  9  1  0
  9 10  2  0
  9 11  1  0
 11 12  2  0
 12 13  1  0
 13 14  2  0
 14 15  1  0
 15 16  1  0
 15 17  2  0
  7 18  2  0
 18  2  1  0
 17 11  1  0
M  END
>  <placement_batch>  (15) 
CpKRS_FrAncestor_bulkdock_iter2_cluster_best5

>  <name>  (15) 
AERXIGDRPPOLHV-UHFFFAOYSA-N-P29

>  <HIPPO Pose ID>  (15) 
52763

>  <inchikey>  (15) 
AERXIGDRPPOLHV-UHFFFAOYSA-N

>  <inspiration_score>  (15) 
0.846

>  <tags>  (15) 
CpKRS_FrAncestor_bulkdock_iter2,CpKRS_FrAncestor_bulkdock_iter2_cluster_best5,BulkDock Fragalysis export,fragmenstein_placed,CpKRS_FrAncestor_bulkdock_iter2_exported

>  <distance_score>  (15) 
0.372629

>  <ref_pdb>  (15) 
x0540b

>  <alias>  (15) 
AERXIGDRPPOLHV-UHFFFAOYSA-N-P29

>  <subsites>  (15) 


>  <smiles>  (15) 
Cc1ccc(Br)c(NC(=O)c2ccnc(C)c2)c1

>  <HIPPO Compound ID>  (15) 
152880

>  <ref_mols>  (15) 
x0485c

>  <energy_score>  (15) 
-17.228135

$$$$
AZJQRXQXWXWKQP-UHFFFAOYSA-N-P52
     RDKit          3D

 12 12  0  0  0  0  0  0  0  0999 V2000
   25.0860    7.3540   25.3218 C   0  0  0  0  0  0  0  0  0  0  0  0
   24.5658    8.5890   24.6351 C   0  0  0  0  0  0  0  0  0  0  0  0
   25.5075    9.3510   23.9171 C   0  0  0  0  0  0  0  0  0  0  0  0
   25.1217   10.4598   23.1769 C   0  0  0  0  0  0  0  0  0  0  0  0
   23.7829   10.8194   23.1325 C   0  0  0  0  0  0  0  0  0  0  0  0
   22.8229   10.1073   23.8612 C   0  0  0  0  0  0  0  0  0  0  0  0
   21.0378   10.7304   23.6607 Br  0  0  0  0  0  0  0  0  0  0  0  0
   23.2074    8.9988   24.6362 C   0  0  0  0  0  0  0  0  0  0  0  0
   21.9776    8.1602   25.6186 S   0  0  0  0  0  0  0  0  0  0  0  0
   21.0388    7.4236   24.4510 N   0  0  0  0  0  0  0  0  0  0  0  0
   22.5914    7.0865   26.3646 O   0  0  0  0  0  0  0  0  0  0  0  0
   21.1658    9.1356   26.3105 O   0  0  0  0  0  0  0  0  0  0  0  0
  1  2  1  0
  2  3  2  0
  3  4  1  0
  4  5  2  0
  5  6  1  0
  6  7  1  0
  6  8  2  0
  8  9  1  0
  9 10  1  0
  9 11  2  0
  9 12  2  0
  8  2  1  0
M  END
>  <placement_batch>  (16) 
CpKRS_FrAncestor_bulkdock_iter2_cluster_best5

>  <name>  (16) 
AZJQRXQXWXWKQP-UHFFFAOYSA-N-P52

>  <HIPPO Pose ID>  (16) 
52871

>  <inchikey>  (16) 
AZJQRXQXWXWKQP-UHFFFAOYSA-N

>  <inspiration_score>  (16) 
0.918

>  <tags>  (16) 
CpKRS_FrAncestor_bulkdock_iter2,CpKRS_FrAncestor_bulkdock_iter2_cluster_best5,BulkDock Fragalysis export,fragmenstein_placed,CpKRS_FrAncestor_bulkdock_iter2_exported

>  <distance_score>  (16) 
0.379248

>  <ref_pdb>  (16) 
x0540b

>  <alias>  (16) 
AZJQRXQXWXWKQP-UHFFFAOYSA-N-P52

>  <subsites>  (16) 


>  <smiles>  (16) 
Cc1cccc(Br)c1S(N)(=O)=O

>  <HIPPO Compound ID>  (16) 
447531

>  <ref_mols>  (16) 
x0639a

>  <energy_score>  (16) 
-38.8676

$$$$
PMRVIRSYEAPVIV-UHFFFAOYSA-N-P60
     RDKit          3D

 17 18  0  0  0  0  0  0  0  0999 V2000
   -0.7492  -23.7283   23.0816 C   0  0  0  0  0  0  0  0  0  0  0  0
   -1.3216  -24.8592   23.8800 C   0  0  0  0  0  0  0  0  0  0  0  0
   -1.9721  -24.6350   25.0985 C   0  0  0  0  0  0  0  0  0  0  0  0
   -2.6098  -25.6839   25.7723 C   0  0  0  0  0  0  0  0  0  0  0  0
   -3.2906  -25.4335   27.0839 C   0  0  0  0  0  0  0  0  0  0  0  0
   -2.5784  -26.9700   25.2191 C   0  0  0  0  0  0  0  0  0  0  0  0
   -1.9210  -27.2139   24.0044 C   0  0  0  0  0  0  0  0  0  0  0  0
   -1.9223  -28.5919   23.3716 C   0  0  0  0  0  0  0  0  0  0  0  0
   -0.6317  -29.2934   23.4682 N   0  0  0  0  0  0  0  0  0  0  0  0
   -0.2945  -29.5798   24.8775 C   0  0  0  0  0  0  0  0  0  0  0  0
   -1.1848  -30.6692   25.5093 C   0  0  0  0  0  0  0  0  0  0  0  0
   -1.5218  -31.7325   24.6046 O   0  0  0  0  0  0  0  0  0  0  0  0
   -0.5463  -31.8448   23.5630 C   0  0  0  0  0  0  0  0  0  0  0  0
   -0.5305  -30.5603   22.6675 C   0  0  0  0  0  0  0  0  0  0  0  0
    0.8337  -30.5020   21.9445 C   0  0  0  0  0  0  0  0  0  0  0  0
   -1.6090  -30.7369   21.5722 C   0  0  0  0  0  0  0  0  0  0  0  0
   -1.2803  -26.1531   23.3534 C   0  0  0  0  0  0  0  0  0  0  0  0
  1  2  1  0
  2  3  2  0
  3  4  1  0
  4  5  1  0
  4  6  2  0
  6  7  1  0
  7  8  1  0
  8  9  1  0
  9 10  1  0
 10 11  1  0
 11 12  1  0
 12 13  1  0
 13 14  1  0
 14 15  1  0
 14 16  1  0
  7 17  2  0
 17  2  1  0
 14  9  1  0
M  END
>  <placement_batch>  (17) 
CpKRS_FrAncestor_bulkdock_iter2_cluster_best5

>  <name>  (17) 
PMRVIRSYEAPVIV-UHFFFAOYSA-N-P60

>  <HIPPO Pose ID>  (17) 
53018

>  <inchikey>  (17) 
PMRVIRSYEAPVIV-UHFFFAOYSA-N

>  <inspiration_score>  (17) 
0.792

>  <tags>  (17) 
CpKRS_FrAncestor_bulkdock_iter2,CpKRS_FrAncestor_bulkdock_iter2_cluster_best5,BulkDock Fragalysis export,fragmenstein_placed,CpKRS_FrAncestor_bulkdock_iter2_exported

>  <distance_score>  (17) 
0.486894

>  <ref_pdb>  (17) 
x0540b

>  <alias>  (17) 
PMRVIRSYEAPVIV-UHFFFAOYSA-N-P60

>  <subsites>  (17) 


>  <smiles>  (17) 
Cc1cc(C)cc(CN2CCOCC2(C)C)c1

>  <HIPPO Compound ID>  (17) 
447557

>  <ref_mols>  (17) 
x0675b

>  <energy_score>  (17) 
-52.912657

$$$$
WEDFFWXCZINKNR-UHFFFAOYSA-N-P60
     RDKit          3D

 16 17  0  0  0  0  0  0  0  0999 V2000
   -3.6981  -25.3743   27.0741 C   0  0  0  0  0  0  0  0  0  0  0  0
   -2.8210  -25.5703   25.8761 C   0  0  0  0  0  0  0  0  0  0  0  0
   -2.0173  -24.5351   25.4124 C   0  0  0  0  0  0  0  0  0  0  0  0
   -1.1815  -24.7344   24.3151 C   0  0  0  0  0  0  0  0  0  0  0  0
   -1.1048  -25.9779   23.6694 C   0  0  0  0  0  0  0  0  0  0  0  0
   -0.1543  -26.1225   22.5109 C   0  0  0  0  0  0  0  0  0  0  0  0
   -1.9448  -27.0296   24.0972 C   0  0  0  0  0  0  0  0  0  0  0  0
   -1.9807  -28.3741   23.3554 C   0  0  2  0  0  0  0  0  0  0  0  0
   -3.4061  -28.9601   23.2707 C   0  0  0  0  0  0  0  0  0  0  0  0
   -0.9486  -29.3050   23.8488 N   0  0  0  0  0  0  0  0  0  0  0  0
   -1.1680  -29.8858   25.1797 C   0  0  0  0  0  0  0  0  0  0  0  0
   -1.7364  -31.3116   25.1473 C   0  0  0  0  0  0  0  0  0  0  0  0
   -0.9476  -32.2391   24.3923 O   0  0  0  0  0  0  0  0  0  0  0  0
   -0.0131  -31.6019   23.5112 C   0  0  0  0  0  0  0  0  0  0  0  0
   -0.5992  -30.3423   22.8579 C   0  0  0  0  0  0  0  0  0  0  0  0
   -2.7746  -26.8047   25.2184 C   0  0  0  0  0  0  0  0  0  0  0  0
  1  2  1  0
  2  3  2  0
  3  4  1  0
  4  5  2  0
  5  6  1  0
  5  7  1  0
  7  8  1  0
  8  9  1  1
  8 10  1  0
 10 11  1  0
 11 12  1  0
 12 13  1  0
 13 14  1  0
 14 15  1  0
  7 16  2  0
 16  2  1  0
 15 10  1  0
M  END
>  <placement_batch>  (18) 
CpKRS_FrAncestor_bulkdock_iter2_cluster_best5

>  <name>  (18) 
WEDFFWXCZINKNR-UHFFFAOYSA-N-P60

>  <HIPPO Pose ID>  (18) 
53086

>  <inchikey>  (18) 
WEDFFWXCZINKNR-UHFFFAOYSA-N

>  <inspiration_score>  (18) 
0.73

>  <tags>  (18) 
CpKRS_FrAncestor_bulkdock_iter2,CpKRS_FrAncestor_bulkdock_iter2_cluster_best5,BulkDock Fragalysis export,fragmenstein_placed,CpKRS_FrAncestor_bulkdock_iter2_exported

>  <distance_score>  (18) 
0.498369

>  <ref_pdb>  (18) 
x0540b

>  <alias>  (18) 
WEDFFWXCZINKNR-UHFFFAOYSA-N-P60

>  <subsites>  (18) 


>  <smiles>  (18) 
Cc1ccc(C)c(C(C)N2CCOCC2)c1

>  <HIPPO Compound ID>  (18) 
139754

>  <ref_mols>  (18) 
x0675b

>  <energy_score>  (18) 
-49.518466

$$$$
NBWJWYQXOVSYOZ-UHFFFAOYSA-N-P22
     RDKit          3D

 14 14  0  0  0  0  0  0  0  0999 V2000
   24.7052    3.6797   26.2454 C   0  0  0  0  0  0  0  0  0  0  0  0
   24.8888    5.1480   26.0138 C   0  0  0  0  0  0  0  0  0  0  0  0
   26.0034    5.8038   26.5344 C   0  0  0  0  0  0  0  0  0  0  0  0
   26.2317    7.1434   26.2318 C   0  0  0  0  0  0  0  0  0  0  0  0
   25.3484    7.8584   25.4078 C   0  0  0  0  0  0  0  0  0  0  0  0
   25.6974    9.2738   25.0343 C   0  0  0  0  0  0  0  0  0  0  0  0
   24.1912    7.2211   24.9124 C   0  0  0  0  0  0  0  0  0  0  0  0
   23.1818    7.9544   24.0544 C   0  0  0  0  0  0  0  0  0  0  0  0
   22.3389    8.7266   24.8902 O   0  0  0  0  0  0  0  0  0  0  0  0
   21.8264   10.1670   24.3702 S   0  0  0  0  0  0  0  0  0  0  0  0
   20.8207    9.8133   23.0780 N   0  0  0  0  0  0  0  0  0  0  0  0
   20.9454   10.7447   25.3630 O   0  0  0  0  0  0  0  0  0  0  0  0
   22.9190   10.9277   23.8112 O   0  0  0  0  0  0  0  0  0  0  0  0
   23.9780    5.8649   25.2237 C   0  0  0  0  0  0  0  0  0  0  0  0
  1  2  1  0
  2  3  2  0
  3  4  1  0
  4  5  2  0
  5  6  1  0
  5  7  1  0
  7  8  1  0
  8  9  1  0
  9 10  1  0
 10 11  1  0
 10 12  2  0
 10 13  2  0
  7 14  2  0
 14  2  1  0
M  END
>  <placement_batch>  (19) 
CpKRS_FrAncestor_bulkdock_iter2_cluster_best5

>  <name>  (19) 
NBWJWYQXOVSYOZ-UHFFFAOYSA-N-P22

>  <HIPPO Pose ID>  (19) 
53108

>  <inchikey>  (19) 
NBWJWYQXOVSYOZ-UHFFFAOYSA-N

>  <inspiration_score>  (19) 
0.803

>  <tags>  (19) 
CpKRS_FrAncestor_bulkdock_iter2,CpKRS_FrAncestor_bulkdock_iter2_cluster_best5,BulkDock Fragalysis export,fragmenstein_placed,CpKRS_FrAncestor_bulkdock_iter2_exported

>  <distance_score>  (19) 
0.390833

>  <ref_pdb>  (19) 
x0540b

>  <alias>  (19) 
NBWJWYQXOVSYOZ-UHFFFAOYSA-N-P22

>  <subsites>  (19) 


>  <smiles>  (19) 
Cc1ccc(C)c(COS(N)(=O)=O)c1

>  <HIPPO Compound ID>  (19) 
447575

>  <ref_mols>  (19) 
x0472b

>  <energy_score>  (19) 
-31.229118

$$$$
FAEYNAIRYPJXKE-UHFFFAOYSA-N-P23
     RDKit          3D

 14 14  0  0  0  0  0  0  0  0999 V2000
   26.8644    8.5830   25.8851 C   0  0  0  0  0  0  0  0  0  0  0  0
   25.6883    7.6535   25.8353 C   0  0  0  0  0  0  0  0  0  0  0  0
   25.8669    6.2849   26.0661 C   0  0  0  0  0  0  0  0  0  0  0  0
   24.7912    5.3991   25.9630 C   0  0  0  0  0  0  0  0  0  0  0  0
   24.9849    3.9252   26.1611 C   0  0  0  0  0  0  0  0  0  0  0  0
   23.5328    5.8947   25.6054 C   0  0  0  0  0  0  0  0  0  0  0  0
   23.3207    7.2628   25.3905 C   0  0  0  0  0  0  0  0  0  0  0  0
   21.9263    7.7760   25.1224 C   0  0  0  0  0  0  0  0  0  0  0  0
   21.8872    8.6619   24.0240 O   0  0  0  0  0  0  0  0  0  0  0  0
   21.5852   10.2304   24.2603 S   0  0  0  0  0  0  0  0  0  0  0  0
   20.4841   10.5618   23.0408 N   0  0  0  0  0  0  0  0  0  0  0  0
   20.8362   10.4208   25.4808 O   0  0  0  0  0  0  0  0  0  0  0  0
   22.7788   10.9823   23.9642 O   0  0  0  0  0  0  0  0  0  0  0  0
   24.4155    8.1305   25.4942 C   0  0  0  0  0  0  0  0  0  0  0  0
  1  2  1  0
  2  3  2  0
  3  4  1  0
  4  5  1  0
  4  6  2  0
  6  7  1  0
  7  8  1  0
  8  9  1  0
  9 10  1  0
 10 11  1  0
 10 12  2  0
 10 13  2  0
  7 14  2  0
 14  2  1  0
M  END
>  <placement_batch>  (20) 
CpKRS_FrAncestor_bulkdock_iter2_cluster_best5

>  <name>  (20) 
FAEYNAIRYPJXKE-UHFFFAOYSA-N-P23

>  <HIPPO Pose ID>  (20) 
53112

>  <inchikey>  (20) 
FAEYNAIRYPJXKE-UHFFFAOYSA-N

>  <inspiration_score>  (20) 
0.811

>  <tags>  (20) 
CpKRS_FrAncestor_bulkdock_iter2,CpKRS_FrAncestor_bulkdock_iter2_cluster_best5,BulkDock Fragalysis export,fragmenstein_placed,CpKRS_FrAncestor_bulkdock_iter2_exported

>  <distance_score>  (20) 
0.310748

>  <ref_pdb>  (20) 
x0540b

>  <alias>  (20) 
FAEYNAIRYPJXKE-UHFFFAOYSA-N-P23

>  <subsites>  (20) 


>  <smiles>  (20) 
Cc1cc(C)cc(COS(N)(=O)=O)c1

>  <HIPPO Compound ID>  (20) 
447576

>  <ref_mols>  (20) 
x0472c

>  <energy_score>  (20) 
-33.114098

$$$$
RRNRBLJRUHWIIA-UHFFFAOYSA-N-P38
     RDKit          3D

 17 17  0  0  0  0  0  0  0  0999 V2000
   -0.3904  -13.0664   25.7353 C   0  0  0  0  0  0  0  0  0  0  0  0
    1.0096  -13.5113   26.0441 C   0  0  0  0  0  0  0  0  0  0  0  0
    1.2311  -14.4062   27.0845 C   0  0  0  0  0  0  0  0  0  0  0  0
    2.4923  -14.9458   27.2929 C   0  0  0  0  0  0  0  0  0  0  0  0
    3.5937  -14.5660   26.5028 C   0  0  0  0  0  0  0  0  0  0  0  0
    4.8595  -15.3349   26.7732 C   0  0  0  0  0  0  0  0  0  0  0  0
    3.4262  -13.5774   25.4955 C   0  0  0  0  0  0  0  0  0  0  0  0
    4.6294  -13.0901   24.6637 C   0  0  0  0  0  0  0  0  0  0  0  0
    5.6269  -13.6760   24.7566 O   0  0  0  0  0  0  0  0  0  0  0  0
    4.2899  -11.8371   23.8647 N   0  0  0  0  0  0  0  0  0  0  0  0
    5.0525  -11.1085   22.9605 O   0  0  0  0  0  0  0  0  0  0  0  0
    4.8112   -9.6911   23.0226 C   0  0  0  0  0  0  0  0  0  0  0  0
    3.3281   -9.3285   23.1625 C   0  0  0  0  0  0  0  0  0  0  0  0
    5.3345   -9.1387   21.6911 C   0  0  0  0  0  0  0  0  0  0  0  0
    5.6140   -9.0712   24.1669 C   0  0  0  0  0  0  0  0  0  0  0  0
    2.1111  -13.0837   25.2833 C   0  0  0  0  0  0  0  0  0  0  0  0
    1.8685  -12.1446   24.3045 O   0  0  0  0  0  0  0  0  0  0  0  0
  1  2  1  0
  2  3  2  0
  3  4  1  0
  4  5  2  0
  5  6  1  0
  5  7  1  0
  7  8  1  0
  8  9  2  0
  8 10  1  0
 10 11  1  0
 11 12  1  0
 12 13  1  0
 12 14  1  0
 12 15  1  0
  7 16  2  0
 16 17  1  0
 16  2  1  0
M  END
>  <placement_batch>  (21) 
CpKRS_FrAncestor_bulkdock_iter2_cluster_best5

>  <name>  (21) 
RRNRBLJRUHWIIA-UHFFFAOYSA-N-P38

>  <HIPPO Pose ID>  (21) 
53113

>  <inchikey>  (21) 
RRNRBLJRUHWIIA-UHFFFAOYSA-N

>  <inspiration_score>  (21) 
0.776

>  <tags>  (21) 
CpKRS_FrAncestor_bulkdock_iter2,CpKRS_FrAncestor_bulkdock_iter2_cluster_best5,BulkDock Fragalysis export,fragmenstein_placed,CpKRS_FrAncestor_bulkdock_iter2_exported

>  <distance_score>  (21) 
0.450307

>  <ref_pdb>  (21) 
x0540b

>  <alias>  (21) 
RRNRBLJRUHWIIA-UHFFFAOYSA-N-P38

>  <subsites>  (21) 


>  <smiles>  (21) 
Cc1ccc(C)c(C(=O)NOC(C)(C)C)c1O

>  <HIPPO Compound ID>  (21) 
150592

>  <ref_mols>  (21) 
x0555a

>  <energy_score>  (21) 
-39.857098

$$$$
PVEHOQFTPZKIHA-UHFFFAOYSA-N-P60
     RDKit          3D

 16 17  0  0  0  0  0  0  0  0999 V2000
   -3.6318  -25.5079   27.0733 C   0  0  0  0  0  0  0  0  0  0  0  0
   -2.7742  -25.6898   25.8580 C   0  0  0  0  0  0  0  0  0  0  0  0
   -1.9867  -24.6342   25.3911 C   0  0  0  0  0  0  0  0  0  0  0  0
   -1.1725  -24.8025   24.2721 C   0  0  0  0  0  0  0  0  0  0  0  0
   -1.1149  -26.0328   23.6224 C   0  0  0  0  0  0  0  0  0  0  0  0
   -1.9010  -27.1027   24.0670 C   0  0  0  0  0  0  0  0  0  0  0  0
   -1.8703  -28.4282   23.3274 C   0  0  0  0  0  0  0  0  0  0  0  0
   -0.6227  -29.1871   23.5131 N   0  0  0  0  0  0  0  0  0  0  0  0
   -0.4298  -29.5621   24.9273 C   0  0  0  0  0  0  0  0  0  0  0  0
   -1.3791  -30.6785   25.4029 C   0  0  0  0  0  0  0  0  0  0  0  0
   -1.5950  -31.7081   24.4272 O   0  0  0  0  0  0  0  0  0  0  0  0
   -0.5343  -31.7400   23.4666 C   0  0  0  0  0  0  0  0  0  0  0  0
   -0.4782  -30.4066   22.6469 C   0  0  0  0  0  0  0  0  0  0  0  0
    0.9211  -30.3055   22.0020 C   0  0  0  0  0  0  0  0  0  0  0  0
   -1.5006  -30.5248   21.4914 C   0  0  0  0  0  0  0  0  0  0  0  0
   -2.7237  -26.9219   25.1918 C   0  0  0  0  0  0  0  0  0  0  0  0
  1  2  1  0
  2  3  2  0
  3  4  1  0
  4  5  2  0
  5  6  1  0
  6  7  1  0
  7  8  1  0
  8  9  1  0
  9 10  1  0
 10 11  1  0
 11 12  1  0
 12 13  1  0
 13 14  1  0
 13 15  1  0
  6 16  2  0
 16  2  1  0
 13  8  1  0
M  END
>  <placement_batch>  (22) 
CpKRS_FrAncestor_bulkdock_iter2_cluster_best5

>  <name>  (22) 
PVEHOQFTPZKIHA-UHFFFAOYSA-N-P60

>  <HIPPO Pose ID>  (22) 
53245

>  <inchikey>  (22) 
PVEHOQFTPZKIHA-UHFFFAOYSA-N

>  <inspiration_score>  (22) 
0.81

>  <tags>  (22) 
CpKRS_FrAncestor_bulkdock_iter2,CpKRS_FrAncestor_bulkdock_iter2_cluster_best5,BulkDock Fragalysis export,fragmenstein_placed,CpKRS_FrAncestor_bulkdock_iter2_exported

>  <distance_score>  (22) 
0.365115

>  <ref_pdb>  (22) 
x0540b

>  <alias>  (22) 
PVEHOQFTPZKIHA-UHFFFAOYSA-N-P60

>  <subsites>  (22) 


>  <smiles>  (22) 
Cc1cccc(CN2CCOCC2(C)C)c1

>  <HIPPO Compound ID>  (22) 
142203

>  <ref_mols>  (22) 
x0675b

>  <energy_score>  (22) 
-53.522227

$$$$
UUVZTMBENXVJQR-CHWSQXEVSA-N-P60
     RDKit          3D

 16 17  0  0  0  0  0  0  0  0999 V2000
   -3.5038  -25.4786   27.0973 C   0  0  0  0  0  0  0  0  0  0  0  0
   -2.6924  -25.6947   25.8563 C   0  0  0  0  0  0  0  0  0  0  0  0
   -1.9032  -24.6625   25.3440 C   0  0  0  0  0  0  0  0  0  0  0  0
   -1.1269  -24.8658   24.2038 C   0  0  0  0  0  0  0  0  0  0  0  0
   -1.1127  -26.1085   23.5753 C   0  0  0  0  0  0  0  0  0  0  0  0
   -1.9014  -27.1551   24.0665 C   0  0  0  0  0  0  0  0  0  0  0  0
   -1.9389  -28.4867   23.3503 C   0  0  0  0  0  0  0  0  0  0  0  0
   -0.6854  -29.2464   23.3973 N   0  0  0  0  0  0  0  0  0  0  0  0
   -0.7592  -30.4460   22.5401 C   0  0  0  0  0  0  0  0  0  0  0  0
   -1.4974  -31.6270   23.1847 C   0  0  0  0  0  0  0  0  0  0  0  0
   -0.9532  -31.9872   24.4553 O   0  0  0  0  0  0  0  0  0  0  0  0
   -0.8975  -30.8859   25.3764 C   0  0  2  0  0  0  0  0  0  0  0  0
   -2.2684  -30.6499   26.0045 C   0  0  0  0  0  0  0  0  0  0  0  0
   -0.2260  -29.6230   24.7544 C   0  0  1  0  0  0  0  0  0  0  0  0
    1.3003  -29.8403   24.6743 C   0  0  0  0  0  0  0  0  0  0  0  0
   -2.6831  -26.9384   25.2133 C   0  0  0  0  0  0  0  0  0  0  0  0
  1  2  1  0
  2  3  2  0
  3  4  1  0
  4  5  2  0
  5  6  1  0
  6  7  1  0
  7  8  1  0
  8  9  1  0
  9 10  1  0
 10 11  1  0
 11 12  1  0
 12 13  1  6
 12 14  1  0
 14 15  1  6
  6 16  2  0
 16  2  1  0
 14  8  1  0
M  END
>  <placement_batch>  (23) 
CpKRS_FrAncestor_bulkdock_iter2_cluster_best5

>  <name>  (23) 
UUVZTMBENXVJQR-CHWSQXEVSA-N-P60

>  <HIPPO Pose ID>  (23) 
53325

>  <inchikey>  (23) 
UUVZTMBENXVJQR-UHFFFAOYSA-N

>  <inspiration_score>  (23) 
0.754

>  <tags>  (23) 
CpKRS_FrAncestor_bulkdock_iter2,CpKRS_FrAncestor_bulkdock_iter2_cluster_best5,BulkDock Fragalysis export,fragmenstein_placed,CpKRS_FrAncestor_bulkdock_iter2_exported

>  <distance_score>  (23) 
0.590029

>  <ref_pdb>  (23) 
x0540b

>  <alias>  (23) 
UUVZTMBENXVJQR-CHWSQXEVSA-N-P60

>  <subsites>  (23) 


>  <smiles>  (23) 
Cc1cccc(CN2CCO[C@H](C)[C@H]2C)c1

>  <HIPPO Compound ID>  (23) 
140139

>  <ref_mols>  (23) 
x0675b

>  <energy_score>  (23) 
-48.845421

$$$$
BQHMVMRKBLHHQT-UHFFFAOYSA-N-P63
     RDKit          3D

 17 18  0  0  0  0  0  0  0  0999 V2000
    2.3435  -16.6456   27.6038 C   0  0  0  0  0  0  0  0  0  0  0  0
    2.4971  -15.4004   26.8104 C   0  0  0  0  0  0  0  0  0  0  0  0
    1.5385  -14.4712   26.4926 C   0  0  0  0  0  0  0  0  0  0  0  0
    2.0322  -13.4023   25.6685 C   0  0  0  0  0  0  0  0  0  0  0  0
    1.1187  -12.2982   25.2450 C   0  0  0  0  0  0  0  0  0  0  0  0
    3.3925  -13.5698   25.3819 C   0  0  0  0  0  0  0  0  0  0  0  0
    4.3733  -12.7701   24.5964 C   0  0  0  0  0  0  0  0  0  0  0  0
    5.5080  -12.8269   24.8488 O   0  0  0  0  0  0  0  0  0  0  0  0
    3.6276  -11.9255   23.5548 N   0  0  0  0  0  0  0  0  0  0  0  0
    4.1043  -10.9051   22.6692 C   0  0  2  0  0  0  0  0  0  0  0  0
    5.0545  -11.4737   21.6445 C   0  0  0  0  0  0  0  0  0  0  0  0
    4.6246   -9.7197   23.4045 C   0  0  0  0  0  0  0  0  0  0  0  0
    5.7718   -8.9457   23.1065 C   0  0  0  0  0  0  0  0  0  0  0  0
    5.9022   -7.8823   23.8990 N   0  0  0  0  0  0  0  0  0  0  0  0
    4.8994   -8.0141   24.7747 N   0  0  0  0  0  0  0  0  0  0  0  0
    4.0559   -9.0415   24.4627 C   0  0  0  0  0  0  0  0  0  0  0  0
    4.0138  -14.9750   26.1762 S   0  0  0  0  0  0  0  0  0  0  0  0
  1  2  1  0
  2  3  2  0
  3  4  1  0
  4  5  1  0
  4  6  2  0
  6  7  1  0
  7  8  2  0
  7  9  1  0
  9 10  1  0
 10 11  1  1
 10 12  1  0
 12 13  1  0
 13 14  2  0
 14 15  1  0
 15 16  1  0
  6 17  1  0
 17  2  1  0
 16 12  2  0
M  END
>  <placement_batch>  (24) 
CpKRS_FrAncestor_bulkdock_iter2_cluster_best5

>  <name>  (24) 
BQHMVMRKBLHHQT-UHFFFAOYSA-N-P63

>  <HIPPO Pose ID>  (24) 
53415

>  <inchikey>  (24) 
BQHMVMRKBLHHQT-UHFFFAOYSA-N

>  <inspiration_score>  (24) 
0.601

>  <tags>  (24) 
CpKRS_FrAncestor_bulkdock_iter2,CpKRS_FrAncestor_bulkdock_iter2_cluster_best5,BulkDock Fragalysis export,fragmenstein_placed,CpKRS_FrAncestor_bulkdock_iter2_exported

>  <distance_score>  (24) 
0.745678

>  <ref_pdb>  (24) 
x0540b

>  <alias>  (24) 
BQHMVMRKBLHHQT-UHFFFAOYSA-N-P63

>  <subsites>  (24) 


>  <smiles>  (24) 
Cc1cc(C)c(C(=O)NC(C)c2cn[nH]c2)s1

>  <HIPPO Compound ID>  (24) 
447619

>  <ref_mols>  (24) 
x0787a

>  <energy_score>  (24) 
-2.57415

$$$$
XWEVMKNARQWGFU-UHFFFAOYSA-N-P38
     RDKit          3D

 16 16  0  0  0  0  0  0  0  0999 V2000
   -0.3419  -13.4682   25.9657 C   0  0  0  0  0  0  0  0  0  0  0  0
    1.1232  -13.7112   26.1962 C   0  0  0  0  0  0  0  0  0  0  0  0
    1.5153  -14.6253   27.1844 C   0  0  0  0  0  0  0  0  0  0  0  0
    2.8363  -15.0374   27.2905 C   0  0  0  0  0  0  0  0  0  0  0  0
    3.7873  -14.5207   26.4199 C   0  0  0  0  0  0  0  0  0  0  0  0
    3.4483  -13.5419   25.4678 C   0  0  0  0  0  0  0  0  0  0  0  0
    4.6013  -13.0244   24.6218 C   0  0  0  0  0  0  0  0  0  0  0  0
    5.6336  -13.5488   24.7203 O   0  0  0  0  0  0  0  0  0  0  0  0
    4.1690  -11.8421   23.7541 N   0  0  0  0  0  0  0  0  0  0  0  0
    4.8865  -11.1104   22.7520 C   0  0  0  0  0  0  0  0  0  0  0  0
    4.7532   -9.5843   22.9045 C   0  0  0  0  0  0  0  0  0  0  0  0
    3.2852   -9.1913   23.1215 C   0  0  0  0  0  0  0  0  0  0  0  0
    5.2869   -8.9371   21.6192 C   0  0  0  0  0  0  0  0  0  0  0  0
    5.5795   -9.0642   24.0894 C   0  0  0  0  0  0  0  0  0  0  0  0
    2.1025  -13.0979   25.3823 C   0  0  0  0  0  0  0  0  0  0  0  0
    1.6631  -12.2375   24.3280 N   0  0  0  0  0  0  0  0  0  0  0  0
  1  2  1  0
  2  3  2  0
  3  4  1  0
  4  5  2  0
  5  6  1  0
  6  7  1  0
  7  8  2  0
  7  9  1  0
  9 10  1  0
 10 11  1  0
 11 12  1  0
 11 13  1  0
 11 14  1  0
  6 15  2  0
 15 16  1  0
 15  2  1  0
M  END
>  <placement_batch>  (25) 
CpKRS_FrAncestor_bulkdock_iter2_cluster_best5

>  <name>  (25) 
XWEVMKNARQWGFU-UHFFFAOYSA-N-P38

>  <HIPPO Pose ID>  (25) 
53427

>  <inchikey>  (25) 
XWEVMKNARQWGFU-UHFFFAOYSA-N

>  <inspiration_score>  (25) 
0.682

>  <tags>  (25) 
CpKRS_FrAncestor_bulkdock_iter2,CpKRS_FrAncestor_bulkdock_iter2_cluster_best5,BulkDock Fragalysis export,fragmenstein_placed,CpKRS_FrAncestor_bulkdock_iter2_exported

>  <distance_score>  (25) 
0.353661

>  <ref_pdb>  (25) 
x0540b

>  <alias>  (25) 
XWEVMKNARQWGFU-UHFFFAOYSA-N-P38

>  <subsites>  (25) 


>  <smiles>  (25) 
Cc1cccc(C(=O)NCC(C)(C)C)c1N

>  <HIPPO Compound ID>  (25) 
127296

>  <ref_mols>  (25) 
x0555a

>  <energy_score>  (25) 
-37.784053

$$$$
CEAHTAAXOXVEBY-UHFFFAOYSA-N-P21
     RDKit          3D

 14 14  0  0  0  0  0  0  0  0999 V2000
   26.9711    7.0033   27.0729 C   0  0  0  0  0  0  0  0  0  0  0  0
   25.7271    6.5690   26.3498 C   0  0  0  0  0  0  0  0  0  0  0  0
   25.3128    5.2376   26.4744 C   0  0  0  0  0  0  0  0  0  0  0  0
   24.1857    4.7874   25.7989 C   0  0  0  0  0  0  0  0  0  0  0  0
   23.4447    5.6625   25.0070 C   0  0  0  0  0  0  0  0  0  0  0  0
   23.8226    7.0051   24.8661 C   0  0  0  0  0  0  0  0  0  0  0  0
   22.9670    7.9115   24.0111 C   0  0  0  0  0  0  0  0  0  0  0  0
   22.2533    8.8097   24.8440 O   0  0  0  0  0  0  0  0  0  0  0  0
   21.9424   10.2689   24.2205 S   0  0  0  0  0  0  0  0  0  0  0  0
   21.1591   11.0897   25.4566 N   0  0  0  0  0  0  0  0  0  0  0  0
   20.9999   10.1596   23.1356 O   0  0  0  0  0  0  0  0  0  0  0  0
   23.1915   10.9657   24.0390 O   0  0  0  0  0  0  0  0  0  0  0  0
   24.9869    7.4444   25.5262 C   0  0  0  0  0  0  0  0  0  0  0  0
   25.5608    9.0648   25.2995 Cl  0  0  0  0  0  0  0  0  0  0  0  0
  1  2  1  0
  2  3  2  0
  3  4  1  0
  4  5  2  0
  5  6  1  0
  6  7  1  0
  7  8  1  0
  8  9  1  0
  9 10  1  0
  9 11  2  0
  9 12  2  0
  6 13  2  0
 13 14  1  0
 13  2  1  0
M  END
>  <placement_batch>  (26) 
CpKRS_FrAncestor_bulkdock_iter2_cluster_best5

>  <name>  (26) 
CEAHTAAXOXVEBY-UHFFFAOYSA-N-P21

>  <HIPPO Pose ID>  (26) 
53446

>  <inchikey>  (26) 
CEAHTAAXOXVEBY-UHFFFAOYSA-N

>  <inspiration_score>  (26) 
0.799

>  <tags>  (26) 
CpKRS_FrAncestor_bulkdock_iter2,CpKRS_FrAncestor_bulkdock_iter2_cluster_best5,BulkDock Fragalysis export,fragmenstein_placed,CpKRS_FrAncestor_bulkdock_iter2_exported

>  <distance_score>  (26) 
0.360538

>  <ref_pdb>  (26) 
x0540b

>  <alias>  (26) 
CEAHTAAXOXVEBY-UHFFFAOYSA-N-P21

>  <subsites>  (26) 


>  <smiles>  (26) 
Cc1cccc(COS(N)(=O)=O)c1Cl

>  <HIPPO Compound ID>  (26) 
447625

>  <ref_mols>  (26) 
x0472a

>  <energy_score>  (26) 
-30.840449

$$$$
SQRNLYAZSYTIBM-UHFFFAOYSA-N-P21
     RDKit          3D

 14 14  0  0  0  0  0  0  0  0999 V2000
   26.9676    7.0053   27.0239 C   0  0  0  0  0  0  0  0  0  0  0  0
   25.7328    6.5431   26.3009 C   0  0  0  0  0  0  0  0  0  0  0  0
   25.3173    5.2196   26.4912 C   0  0  0  0  0  0  0  0  0  0  0  0
   24.1883    4.7369   25.8454 C   0  0  0  0  0  0  0  0  0  0  0  0
   23.4344    5.5799   25.0343 C   0  0  0  0  0  0  0  0  0  0  0  0
   23.8093    6.9137   24.8302 C   0  0  0  0  0  0  0  0  0  0  0  0
   22.9015    7.7934   23.9904 C   0  0  0  0  0  0  0  0  0  0  0  0
   22.2537    8.7339   24.8337 O   0  0  0  0  0  0  0  0  0  0  0  0
   21.9976   10.2056   24.2179 S   0  0  0  0  0  0  0  0  0  0  0  0
   21.2036   11.0364   25.4425 N   0  0  0  0  0  0  0  0  0  0  0  0
   23.2709   10.8712   24.0836 O   0  0  0  0  0  0  0  0  0  0  0  0
   21.0785   10.1388   23.1100 O   0  0  0  0  0  0  0  0  0  0  0  0
   25.0088    7.3838   25.4207 C   0  0  0  0  0  0  0  0  0  0  0  0
   25.4965    8.7736   25.1117 C   0  0  0  0  0  0  0  0  0  0  0  0
  1  2  1  0
  2  3  2  0
  3  4  1  0
  4  5  2  0
  5  6  1  0
  6  7  1  0
  7  8  1  0
  8  9  1  0
  9 10  1  0
  9 11  2  0
  9 12  2  0
  6 13  2  0
 13 14  1  0
 13  2  1  0
M  END
>  <placement_batch>  (27) 
CpKRS_FrAncestor_bulkdock_iter2_cluster_best5

>  <name>  (27) 
SQRNLYAZSYTIBM-UHFFFAOYSA-N-P21

>  <HIPPO Pose ID>  (27) 
53449

>  <inchikey>  (27) 
SQRNLYAZSYTIBM-UHFFFAOYSA-N

>  <inspiration_score>  (27) 
0.8

>  <tags>  (27) 
CpKRS_FrAncestor_bulkdock_iter2,CpKRS_FrAncestor_bulkdock_iter2_cluster_best5,BulkDock Fragalysis export,fragmenstein_placed,CpKRS_FrAncestor_bulkdock_iter2_exported

>  <distance_score>  (27) 
0.387217

>  <ref_pdb>  (27) 
x0540b

>  <alias>  (27) 
SQRNLYAZSYTIBM-UHFFFAOYSA-N-P21

>  <subsites>  (27) 


>  <smiles>  (27) 
Cc1cccc(COS(N)(=O)=O)c1C

>  <HIPPO Compound ID>  (27) 
447626

>  <ref_mols>  (27) 
x0472a

>  <energy_score>  (27) 
-29.572265

$$$$
BOAAHIPUWVVDOZ-UHFFFAOYSA-N-P23
     RDKit          3D

 13 13  0  0  0  0  0  0  0  0999 V2000
   24.9810    3.9497   26.1549 C   0  0  0  0  0  0  0  0  0  0  0  0
   24.7767    5.4219   25.9565 C   0  0  0  0  0  0  0  0  0  0  0  0
   25.8403    6.3174   26.0843 C   0  0  0  0  0  0  0  0  0  0  0  0
   25.6435    7.6762   25.8474 C   0  0  0  0  0  0  0  0  0  0  0  0
   24.3794    8.1521   25.4951 C   0  0  0  0  0  0  0  0  0  0  0  0
   23.2952    7.2769   25.3696 C   0  0  0  0  0  0  0  0  0  0  0  0
   21.8983    7.7782   25.0922 C   0  0  0  0  0  0  0  0  0  0  0  0
   21.8538    8.6807   24.0066 O   0  0  0  0  0  0  0  0  0  0  0  0
   21.5728   10.2488   24.2682 S   0  0  0  0  0  0  0  0  0  0  0  0
   20.4429   10.6076   23.0758 N   0  0  0  0  0  0  0  0  0  0  0  0
   22.7623   10.9968   23.9500 O   0  0  0  0  0  0  0  0  0  0  0  0
   20.8457   10.4349   25.5023 O   0  0  0  0  0  0  0  0  0  0  0  0
   23.5186    5.9082   25.5793 C   0  0  0  0  0  0  0  0  0  0  0  0
  1  2  1  0
  2  3  2  0
  3  4  1  0
  4  5  2  0
  5  6  1  0
  6  7  1  0
  7  8  1  0
  8  9  1  0
  9 10  1  0
  9 11  2  0
  9 12  2  0
  6 13  2  0
 13  2  1  0
M  END
>  <placement_batch>  (28) 
CpKRS_FrAncestor_bulkdock_iter2_cluster_best5

>  <name>  (28) 
BOAAHIPUWVVDOZ-UHFFFAOYSA-N-P23

>  <HIPPO Pose ID>  (28) 
53454

>  <inchikey>  (28) 
BOAAHIPUWVVDOZ-UHFFFAOYSA-N

>  <inspiration_score>  (28) 
0.813

>  <tags>  (28) 
CpKRS_FrAncestor_bulkdock_iter2,CpKRS_FrAncestor_bulkdock_iter2_cluster_best5,BulkDock Fragalysis export,fragmenstein_placed,CpKRS_FrAncestor_bulkdock_iter2_exported

>  <distance_score>  (28) 
0.308933

>  <ref_pdb>  (28) 
x0540b

>  <alias>  (28) 
BOAAHIPUWVVDOZ-UHFFFAOYSA-N-P23

>  <subsites>  (28) 


>  <smiles>  (28) 
Cc1cccc(COS(N)(=O)=O)c1

>  <HIPPO Compound ID>  (28) 
447627

>  <ref_mols>  (28) 
x0472c

>  <energy_score>  (28) 
-21.452756

$$$$
AZQCCVRUAHDLCS-UHFFFAOYSA-N-P38
     RDKit          3D

 15 15  0  0  0  0  0  0  0  0999 V2000
   -0.4536  -13.3633   25.8843 C   0  0  0  0  0  0  0  0  0  0  0  0
    1.0149  -13.6101   26.0656 C   0  0  0  0  0  0  0  0  0  0  0  0
    1.4756  -14.5313   27.0145 C   0  0  0  0  0  0  0  0  0  0  0  0
    2.8206  -14.8854   27.0666 C   0  0  0  0  0  0  0  0  0  0  0  0
    3.7221  -14.3062   26.1777 C   0  0  0  0  0  0  0  0  0  0  0  0
    3.2952  -13.3401   25.2532 C   0  0  0  0  0  0  0  0  0  0  0  0
    4.3355  -12.7543   24.3699 C   0  0  0  0  0  0  0  0  0  0  0  0
    5.5194  -13.0286   24.4551 O   0  0  0  0  0  0  0  0  0  0  0  0
    3.7978  -11.8727   23.4839 O   0  0  0  0  0  0  0  0  0  0  0  0
    4.7146  -11.2302   22.5786 C   0  0  0  0  0  0  0  0  0  0  0  0
    4.5747   -9.7074   22.7046 C   0  0  0  0  0  0  0  0  0  0  0  0
    5.3519   -9.0173   21.5915 C   0  0  0  0  0  0  0  0  0  0  0  0
    5.0544   -9.2023   24.0650 C   0  0  0  0  0  0  0  0  0  0  0  0
    1.9376  -12.9933   25.2102 C   0  0  0  0  0  0  0  0  0  0  0  0
    1.4230  -12.0655   24.3410 O   0  0  0  0  0  0  0  0  0  0  0  0
  1  2  1  0
  2  3  2  0
  3  4  1  0
  4  5  2  0
  5  6  1  0
  6  7  1  0
  7  8  2  0
  7  9  1  0
  9 10  1  0
 10 11  1  0
 11 12  1  0
 11 13  1  0
  6 14  2  0
 14 15  1  0
 14  2  1  0
M  END
>  <placement_batch>  (29) 
CpKRS_FrAncestor_bulkdock_iter2_cluster_best5

>  <name>  (29) 
AZQCCVRUAHDLCS-UHFFFAOYSA-N-P38

>  <HIPPO Pose ID>  (29) 
53456

>  <inchikey>  (29) 
AZQCCVRUAHDLCS-UHFFFAOYSA-N

>  <inspiration_score>  (29) 
0.664

>  <tags>  (29) 
CpKRS_FrAncestor_bulkdock_iter2,CpKRS_FrAncestor_bulkdock_iter2_cluster_best5,BulkDock Fragalysis export,fragmenstein_placed,CpKRS_FrAncestor_bulkdock_iter2_exported

>  <distance_score>  (29) 
0.459742

>  <ref_pdb>  (29) 
x0540b

>  <alias>  (29) 
AZQCCVRUAHDLCS-UHFFFAOYSA-N-P38

>  <subsites>  (29) 


>  <smiles>  (29) 
Cc1cccc(C(=O)OCC(C)C)c1O

>  <HIPPO Compound ID>  (29) 
315650

>  <ref_mols>  (29) 
x0555a

>  <energy_score>  (29) 
-45.453006

$$$$
UQZSGRRZENNPQI-ABLWVSNPSA-N-P56
     RDKit          3D

 19 20  0  0  0  0  0  0  0  0999 V2000
    5.5607   -7.0733   24.7770 C   0  0  0  0  0  0  0  0  0  0  0  0
    5.1580   -8.4326   24.3023 C   0  0  0  0  0  0  0  0  0  0  0  0
    4.2080   -9.2046   24.9739 C   0  0  0  0  0  0  0  0  0  0  0  0
    3.9665  -10.5362   24.5982 C   0  0  0  0  0  0  0  0  0  0  0  0
    4.6648  -11.1079   23.5362 C   0  0  0  0  0  0  0  0  0  0  0  0
    4.4440  -12.5131   23.0182 C   0  0  2  0  0  0  0  0  0  0  0  0
    3.3786  -12.3697   21.9760 C   0  0  0  0  0  0  0  0  0  0  0  0
    4.0201  -13.5597   23.8980 N   0  0  0  0  0  0  0  0  0  0  0  0
    4.4981  -13.9519   25.1799 C   0  0  0  0  0  0  0  0  0  0  0  0
    5.3058  -13.4670   25.8681 O   0  0  0  0  0  0  0  0  0  0  0  0
    3.6337  -15.1010   25.4092 N   0  0  0  0  0  0  0  0  0  0  0  0
    2.3071  -14.6474   26.0356 C   0  0  0  0  0  0  0  0  0  0  0  0
    2.2133  -14.0236   27.4213 C   0  0  0  0  0  0  0  0  0  0  0  0
    2.5689  -14.9588   28.4252 O   0  0  0  0  0  0  0  0  0  0  0  0
    3.7765  -15.5661   27.9925 C   0  0  0  0  0  0  0  0  0  0  0  0
    3.5959  -16.0819   26.5526 C   0  0  1  0  0  0  0  0  0  0  0  0
    2.6731  -17.2792   26.5069 C   0  0  0  0  0  0  0  0  0  0  0  0
    5.5088  -10.2712   22.7882 C   0  0  0  0  0  0  0  0  0  0  0  0
    5.7653   -8.9609   23.1708 C   0  0  0  0  0  0  0  0  0  0  0  0
  1  2  1  0
  2  3  2  0
  3  4  1  0
  4  5  2  0
  5  6  1  0
  6  7  1  6
  6  8  1  0
  8  9  1  0
  9 10  2  0
  9 11  1  0
 11 12  1  0
 12 13  1  0
 13 14  1  0
 14 15  1  0
 15 16  1  0
 16 17  1  1
  5 18  1  0
 18 19  2  0
 19  2  1  0
 16 11  1  0
M  END
>  <placement_batch>  (30) 
CpKRS_FrAncestor_bulkdock_iter2_cluster_best5

>  <name>  (30) 
UQZSGRRZENNPQI-ABLWVSNPSA-N-P56

>  <HIPPO Pose ID>  (30) 
53537

>  <inchikey>  (30) 
UQZSGRRZENNPQI-UHFFFAOYSA-N

>  <inspiration_score>  (30) 
0.556

>  <tags>  (30) 
CpKRS_FrAncestor_bulkdock_iter2,CpKRS_FrAncestor_bulkdock_iter2_cluster_best5,BulkDock Fragalysis export,fragmenstein_placed,CpKRS_FrAncestor_bulkdock_iter2_exported

>  <distance_score>  (30) 
0.861749

>  <ref_pdb>  (30) 
x0540b

>  <alias>  (30) 
UQZSGRRZENNPQI-ABLWVSNPSA-N-P56

>  <subsites>  (30) 


>  <smiles>  (30) 
Cc1ccc([C@H](C)NC(=O)N2CCOCC2C)cc1

>  <HIPPO Compound ID>  (30) 
447631

>  <ref_mols>  (30) 
x0654a

>  <energy_score>  (30) 
-182.483649

$$$$
LPEQGRYTPBKPKQ-UHFFFAOYSA-N-P63
     RDKit          3D

 17 18  0  0  0  0  0  0  0  0999 V2000
   -1.1411  -14.7295   26.3308 C   0  0  0  0  0  0  0  0  0  0  0  0
    0.0586  -14.7353   26.3790 C   0  0  0  0  0  0  0  0  0  0  0  0
    1.4864  -14.7350   26.3099 C   0  0  0  0  0  0  0  0  0  0  0  0
    2.2952  -15.6430   26.9511 C   0  0  0  0  0  0  0  0  0  0  0  0
    3.9475  -15.4205   26.5486 S   0  0  0  0  0  0  0  0  0  0  0  0
    3.5858  -14.1343   25.4703 C   0  0  0  0  0  0  0  0  0  0  0  0
    4.6678  -13.4686   24.7235 C   0  0  0  0  0  0  0  0  0  0  0  0
    5.7588  -13.4702   25.1313 O   0  0  0  0  0  0  0  0  0  0  0  0
    4.0632  -12.7655   23.4942 N   0  0  0  0  0  0  0  0  0  0  0  0
    4.6481  -11.8475   22.5693 C   0  0  0  0  0  0  0  0  0  0  0  0
    4.5284  -10.4705   23.1439 C   0  0  0  0  0  0  0  0  0  0  0  0
    3.9083  -10.0567   24.3068 C   0  0  0  0  0  0  0  0  0  0  0  0
    4.2381   -8.7486   24.4869 N   0  0  0  0  0  0  0  0  0  0  0  0
    4.7876   -8.2073   23.3971 N   0  0  0  0  0  0  0  0  0  0  0  0
    5.0190   -9.2572   22.6013 C   0  0  0  0  0  0  0  0  0  0  0  0
    5.6757   -9.0589   21.3019 C   0  0  0  0  0  0  0  0  0  0  0  0
    2.2332  -13.8318   25.5059 C   0  0  0  0  0  0  0  0  0  0  0  0
  1  2  3  0
  2  3  1  0
  3  4  2  0
  4  5  1  0
  5  6  1  0
  6  7  1  0
  7  8  2  0
  7  9  1  0
  9 10  1  0
 10 11  1  0
 11 12  2  0
 12 13  1  0
 13 14  1  0
 14 15  2  0
 15 16  1  0
  6 17  2  0
 17  3  1  0
 15 11  1  0
M  END
>  <placement_batch>  (31) 
CpKRS_FrAncestor_bulkdock_iter2_cluster_best5

>  <name>  (31) 
LPEQGRYTPBKPKQ-UHFFFAOYSA-N-P63

>  <HIPPO Pose ID>  (31) 
54058

>  <inchikey>  (31) 
LPEQGRYTPBKPKQ-UHFFFAOYSA-N

>  <inspiration_score>  (31) 
0.576

>  <tags>  (31) 
CpKRS_FrAncestor_bulkdock_iter2,CpKRS_FrAncestor_bulkdock_iter2_cluster_best5,BulkDock Fragalysis export,fragmenstein_placed,CpKRS_FrAncestor_bulkdock_iter2_exported

>  <distance_score>  (31) 
0.769751

>  <ref_pdb>  (31) 
x0540b

>  <alias>  (31) 
LPEQGRYTPBKPKQ-UHFFFAOYSA-N-P63

>  <subsites>  (31) 


>  <smiles>  (31) 
C#Cc1csc(C(=O)NCc2c[nH]nc2C)c1

>  <HIPPO Compound ID>  (31) 
150736

>  <ref_mols>  (31) 
x0787a

>  <energy_score>  (31) 
-4.2411

$$$$
UDKJHVYMUNFULO-UHFFFAOYSA-N-P48
     RDKit          3D

 16 16  0  0  0  0  0  0  0  0999 V2000
   -0.8877  -13.0590   25.5603 C   0  0  0  0  0  0  0  0  0  0  0  0
   -0.2655  -13.7482   26.7651 C   0  0  0  0  0  0  0  0  0  0  0  0
    1.2026  -13.9980   26.5967 C   0  0  0  0  0  0  0  0  0  0  0  0
    1.9670  -13.4530   25.6733 N   0  0  0  0  0  0  0  0  0  0  0  0
    3.2750  -13.9555   25.7694 C   0  0  0  0  0  0  0  0  0  0  0  0
    4.3236  -13.4883   24.8359 C   0  0  0  0  0  0  0  0  0  0  0  0
    5.4241  -13.8578   24.9069 O   0  0  0  0  0  0  0  0  0  0  0  0
    3.6707  -12.4936   23.8721 N   0  0  0  0  0  0  0  0  0  0  0  0
    4.2129  -11.8064   22.7216 C   0  0  0  0  0  0  0  0  0  0  0  0
    4.7924  -10.4229   23.0062 C   0  0  0  0  0  0  0  0  0  0  0  0
    5.2592   -9.8604   21.8657 F   0  0  0  0  0  0  0  0  0  0  0  0
    5.8058  -10.4563   23.8953 F   0  0  0  0  0  0  0  0  0  0  0  0
    3.8533   -9.5764   23.4968 F   0  0  0  0  0  0  0  0  0  0  0  0
    3.4482  -14.9061   26.7609 C   0  0  0  0  0  0  0  0  0  0  0  0
    4.6462  -15.7105   27.1069 C   0  0  0  0  0  0  0  0  0  0  0  0
    1.9980  -15.0961   27.6473 S   0  0  0  0  0  0  0  0  0  0  0  0
  1  2  1  0
  2  3  1  0
  3  4  2  0
  4  5  1  0
  5  6  1  0
  6  7  2  0
  6  8  1  0
  8  9  1  0
  9 10  1  0
 10 11  1  0
 10 12  1  0
 10 13  1  0
  5 14  2  0
 14 15  1  0
 14 16  1  0
 16  3  1  0
M  END
>  <placement_batch>  (32) 
CpKRS_FrAncestor_bulkdock_iter2_cluster_best5

>  <name>  (32) 
UDKJHVYMUNFULO-UHFFFAOYSA-N-P48

>  <HIPPO Pose ID>  (32) 
54111

>  <inchikey>  (32) 
UDKJHVYMUNFULO-UHFFFAOYSA-N

>  <inspiration_score>  (32) 
0.677

>  <tags>  (32) 
CpKRS_FrAncestor_bulkdock_iter2,CpKRS_FrAncestor_bulkdock_iter2_cluster_best5,BulkDock Fragalysis export,fragmenstein_placed,CpKRS_FrAncestor_bulkdock_iter2_exported

>  <distance_score>  (32) 
0.502731

>  <ref_pdb>  (32) 
x0540b

>  <alias>  (32) 
UDKJHVYMUNFULO-UHFFFAOYSA-N-P48

>  <subsites>  (32) 


>  <smiles>  (32) 
CCc1nc(C(=O)NCC(F)(F)F)c(C)s1

>  <HIPPO Compound ID>  (32) 
121178

>  <ref_mols>  (32) 
x0504a

>  <energy_score>  (32) 
-77.165085

$$$$
ZOLVJFIRUFMBRC-UHFFFAOYSA-N-P12
     RDKit          3D

 17 18  0  0  0  0  0  0  0  0999 V2000
    1.5385   -9.8264   23.1694 C   0  0  0  0  0  0  0  0  0  0  0  0
    2.9092   -9.4113   23.6706 C   0  0  0  0  0  0  0  0  0  0  0  0
    4.0181  -10.4839   23.6499 C   0  0  0  0  0  0  0  0  0  0  0  0
    3.5822  -11.5963   24.4482 N   0  0  0  0  0  0  0  0  0  0  0  0
    4.2876  -12.9182   24.7889 C   0  0  0  0  0  0  0  0  0  0  0  0
    5.3655  -13.2853   24.5408 O   0  0  0  0  0  0  0  0  0  0  0  0
    3.3200  -13.6949   25.6011 C   0  0  0  0  0  0  0  0  0  0  0  0
    2.0297  -13.2922   25.6549 N   0  0  0  0  0  0  0  0  0  0  0  0
    1.4648  -14.1053   26.5532 N   0  0  0  0  0  0  0  0  0  0  0  0
    0.0848  -13.9003   26.9186 C   0  0  0  0  0  0  0  0  0  0  0  0
    2.3089  -15.0624   27.0226 C   0  0  0  0  0  0  0  0  0  0  0  0
    3.5334  -14.8334   26.4271 C   0  0  0  0  0  0  0  0  0  0  0  0
    4.7863  -15.5853   26.6504 C   0  0  0  0  0  0  0  0  0  0  0  0
    5.3198   -9.8348   24.1448 C   0  0  0  0  0  0  0  0  0  0  0  0
    5.7858   -8.9886   22.9638 C   0  0  0  0  0  0  0  0  0  0  0  0
    5.2412   -9.6913   21.7205 C   0  0  0  0  0  0  0  0  0  0  0  0
    4.4282  -10.8815   22.2306 C   0  0  0  0  0  0  0  0  0  0  0  0
  1  2  1  0
  2  3  1  0
  3  4  1  0
  4  5  1  0
  5  6  2  0
  5  7  1  0
  7  8  2  0
  8  9  1  0
  9 10  1  0
  9 11  1  0
 11 12  2  0
 12 13  1  0
  3 14  1  0
 14 15  1  0
 15 16  1  0
 16 17  1  0
 17  3  1  0
 12  7  1  0
M  END
>  <placement_batch>  (33) 
CpKRS_FrAncestor_bulkdock_iter2_cluster_best5

>  <name>  (33) 
ZOLVJFIRUFMBRC-UHFFFAOYSA-N-P12

>  <HIPPO Pose ID>  (33) 
54136

>  <inchikey>  (33) 
ZOLVJFIRUFMBRC-UHFFFAOYSA-N

>  <inspiration_score>  (33) 
0.819

>  <tags>  (33) 
CpKRS_FrAncestor_bulkdock_iter2,CpKRS_FrAncestor_bulkdock_iter2_cluster_best5,BulkDock Fragalysis export,fragmenstein_placed,CpKRS_FrAncestor_bulkdock_iter2_exported

>  <distance_score>  (33) 
0.459102

>  <ref_pdb>  (33) 
x0540b

>  <alias>  (33) 
ZOLVJFIRUFMBRC-UHFFFAOYSA-N-P12

>  <subsites>  (33) 


>  <smiles>  (33) 
CCC1(NC(=O)c2nn(C)cc2C)CCCC1

>  <HIPPO Compound ID>  (33) 
449127

>  <ref_mols>  (33) 
x0421b

>  <energy_score>  (33) 
-36.759303

$$$$
WQOORKSSCCRNBQ-UHFFFAOYSA-N-P50
     RDKit          3D

 12 12  0  0  0  0  0  0  0  0999 V2000
   -0.7052  -12.8700   26.8646 C   0  0  0  0  0  0  0  0  0  0  0  0
    0.1732  -13.5999   27.5721 C   0  0  0  0  0  0  0  0  0  0  0  0
    1.3991  -14.1867   27.0080 C   0  0  0  0  0  0  0  0  0  0  0  0
    1.5879  -13.8819   25.7060 N   0  0  0  0  0  0  0  0  0  0  0  0
    2.6890  -14.3477   25.1031 C   0  0  0  0  0  0  0  0  0  0  0  0
    2.9109  -14.0099   23.7930 O   0  0  0  0  0  0  0  0  0  0  0  0
    2.1721  -12.8662   23.3739 C   0  0  0  0  0  0  0  0  0  0  0  0
    3.6069  -15.1732   25.7181 C   0  0  0  0  0  0  0  0  0  0  0  0
    3.4130  -15.4810   27.0582 C   0  0  0  0  0  0  0  0  0  0  0  0
    2.3009  -14.9680   27.7425 C   0  0  0  0  0  0  0  0  0  0  0  0
    2.1946  -15.1901   29.2228 C   0  0  0  0  0  0  0  0  0  0  0  0
    1.0764  -15.9643   29.6111 O   0  0  0  0  0  0  0  0  0  0  0  0
  1  2  2  0
  2  3  1  0
  3  4  2  0
  4  5  1  0
  5  6  1  0
  6  7  1  0
  5  8  2  0
  8  9  1  0
  9 10  2  0
 10 11  1  0
 11 12  1  0
 10  3  1  0
M  END
>  <placement_batch>  (34) 
CpKRS_FrAncestor_bulkdock_iter2_cluster_best5

>  <name>  (34) 
WQOORKSSCCRNBQ-UHFFFAOYSA-N-P50

>  <HIPPO Pose ID>  (34) 
54151

>  <inchikey>  (34) 
WQOORKSSCCRNBQ-UHFFFAOYSA-N

>  <inspiration_score>  (34) 
0.654

>  <tags>  (34) 
CpKRS_FrAncestor_bulkdock_iter2,CpKRS_FrAncestor_bulkdock_iter2_cluster_best5,BulkDock Fragalysis export,fragmenstein_placed,CpKRS_FrAncestor_bulkdock_iter2_exported

>  <distance_score>  (34) 
0.704953

>  <ref_pdb>  (34) 
x0540b

>  <alias>  (34) 
WQOORKSSCCRNBQ-UHFFFAOYSA-N-P50

>  <subsites>  (34) 


>  <smiles>  (34) 
C=Cc1nc(OC)ccc1CO

>  <HIPPO Compound ID>  (34) 
449130

>  <ref_mols>  (34) 
x0634a

>  <energy_score>  (34) 
-16.068974

$$$$
CWMKVFKKCURCGM-UHFFFAOYSA-N-P49
     RDKit          3D

 17 17  0  0  0  0  0  0  0  0999 V2000
    5.2795  -16.4750   26.0574 C   0  0  0  0  0  0  0  0  0  0  0  0
    4.3650  -15.7352   26.2859 C   0  0  0  0  0  0  0  0  0  0  0  0
    3.2588  -14.8708   26.5034 C   0  0  0  0  0  0  0  0  0  0  0  0
    1.9990  -15.2509   27.6015 S   0  0  0  0  0  0  0  0  0  0  0  0
    1.2070  -13.8027   27.1709 C   0  0  0  0  0  0  0  0  0  0  0  0
    1.7904  -13.0556   26.2637 N   0  0  0  0  0  0  0  0  0  0  0  0
    3.0141  -13.6520   25.8902 C   0  0  0  0  0  0  0  0  0  0  0  0
    3.9018  -12.9777   24.9119 C   0  0  0  0  0  0  0  0  0  0  0  0
    4.9129  -13.4411   24.5659 O   0  0  0  0  0  0  0  0  0  0  0  0
    3.1894  -11.6915   24.4624 N   0  0  0  0  0  0  0  0  0  0  0  0
    3.6225  -10.6339   23.5435 C   0  0  0  0  0  0  0  0  0  0  0  0
    4.1171  -11.3110   22.2557 C   0  0  0  0  0  0  0  0  0  0  0  0
    2.3865   -9.7755   23.2387 C   0  0  0  0  0  0  0  0  0  0  0  0
    4.7452   -9.7323   24.1358 C   0  0  0  0  0  0  0  0  0  0  0  0
    5.3825   -8.7364   23.1796 C   0  0  0  0  0  0  0  0  0  0  0  0
    4.2525   -9.0335   25.1976 F   0  0  0  0  0  0  0  0  0  0  0  0
    5.7472  -10.4947   24.6342 F   0  0  0  0  0  0  0  0  0  0  0  0
  1  2  3  0
  2  3  1  0
  3  4  1  0
  4  5  1  0
  5  6  2  0
  6  7  1  0
  7  8  1  0
  8  9  2  0
  8 10  1  0
 10 11  1  0
 11 12  1  0
 11 13  1  0
 11 14  1  0
 14 15  1  0
 14 16  1  0
 14 17  1  0
  7  3  2  0
M  END
>  <placement_batch>  (35) 
CpKRS_FrAncestor_bulkdock_iter2_cluster_best5

>  <name>  (35) 
CWMKVFKKCURCGM-UHFFFAOYSA-N-P49

>  <HIPPO Pose ID>  (35) 
54190

>  <inchikey>  (35) 
CWMKVFKKCURCGM-UHFFFAOYSA-N

>  <inspiration_score>  (35) 
0.702

>  <tags>  (35) 
CpKRS_FrAncestor_bulkdock_iter2,CpKRS_FrAncestor_bulkdock_iter2_cluster_best5,BulkDock Fragalysis export,fragmenstein_placed,CpKRS_FrAncestor_bulkdock_iter2_exported

>  <distance_score>  (35) 
0.588109

>  <ref_pdb>  (35) 
x0540b

>  <alias>  (35) 
CWMKVFKKCURCGM-UHFFFAOYSA-N-P49

>  <subsites>  (35) 


>  <smiles>  (35) 
C#Cc1scnc1C(=O)NC(C)(C)C(C)(F)F

>  <HIPPO Compound ID>  (35) 
145635

>  <ref_mols>  (35) 
x0504b

>  <energy_score>  (35) 
-81.724867

$$$$
NRKONCYRCRWOMX-UHFFFAOYSA-N-P49
     RDKit          3D

 17 17  0  0  0  0  0  0  0  0999 V2000
    5.3169  -16.4695   26.0547 C   0  0  0  0  0  0  0  0  0  0  0  0
    4.3880  -15.7552   26.3046 C   0  0  0  0  0  0  0  0  0  0  0  0
    3.2620  -14.9250   26.5473 C   0  0  0  0  0  0  0  0  0  0  0  0
    2.0257  -15.3509   27.6542 S   0  0  0  0  0  0  0  0  0  0  0  0
    1.1876  -13.9225   27.2454 C   0  0  0  0  0  0  0  0  0  0  0  0
    1.7362  -13.1540   26.3343 N   0  0  0  0  0  0  0  0  0  0  0  0
    2.9784  -13.7056   25.9545 C   0  0  0  0  0  0  0  0  0  0  0  0
    3.8434  -12.9815   24.9940 C   0  0  0  0  0  0  0  0  0  0  0  0
    4.8791  -13.3886   24.6531 O   0  0  0  0  0  0  0  0  0  0  0  0
    3.0685  -11.7335   24.5474 N   0  0  0  0  0  0  0  0  0  0  0  0
    3.4511  -10.6503   23.6394 C   0  0  0  0  0  0  0  0  0  0  0  0
    3.9983  -11.2671   22.3441 C   0  0  0  0  0  0  0  0  0  0  0  0
    2.1891   -9.8316   23.3372 C   0  0  0  0  0  0  0  0  0  0  0  0
    4.5237   -9.6910   24.2075 C   0  0  0  0  0  0  0  0  0  0  0  0
    5.6554  -10.3192   24.5709 F   0  0  0  0  0  0  0  0  0  0  0  0
    4.0714   -9.0235   25.2946 F   0  0  0  0  0  0  0  0  0  0  0  0
    4.8647   -8.7512   23.2873 F   0  0  0  0  0  0  0  0  0  0  0  0
  1  2  3  0
  2  3  1  0
  3  4  1  0
  4  5  1  0
  5  6  2  0
  6  7  1  0
  7  8  1  0
  8  9  2  0
  8 10  1  0
 10 11  1  0
 11 12  1  0
 11 13  1  0
 11 14  1  0
 14 15  1  0
 14 16  1  0
 14 17  1  0
  7  3  2  0
M  END
>  <placement_batch>  (36) 
CpKRS_FrAncestor_bulkdock_iter2_cluster_best5

>  <name>  (36) 
NRKONCYRCRWOMX-UHFFFAOYSA-N-P49

>  <HIPPO Pose ID>  (36) 
54199

>  <inchikey>  (36) 
NRKONCYRCRWOMX-UHFFFAOYSA-N

>  <inspiration_score>  (36) 
0.678

>  <tags>  (36) 
CpKRS_FrAncestor_bulkdock_iter2,CpKRS_FrAncestor_bulkdock_iter2_cluster_best5,BulkDock Fragalysis export,fragmenstein_placed,CpKRS_FrAncestor_bulkdock_iter2_exported

>  <distance_score>  (36) 
0.555538

>  <ref_pdb>  (36) 
x0540b

>  <alias>  (36) 
NRKONCYRCRWOMX-UHFFFAOYSA-N-P49

>  <subsites>  (36) 


>  <smiles>  (36) 
C#Cc1scnc1C(=O)NC(C)(C)C(F)(F)F

>  <HIPPO Compound ID>  (36) 
151453

>  <ref_mols>  (36) 
x0504b

>  <energy_score>  (36) 
-74.289841

$$$$
HVMDZJZSCHFLGA-UHFFFAOYSA-N-P48
     RDKit          3D

 15 15  0  0  0  0  0  0  0  0999 V2000
    5.4303  -16.5211   25.8902 C   0  0  0  0  0  0  0  0  0  0  0  0
    4.5518  -15.7918   26.2574 C   0  0  0  0  0  0  0  0  0  0  0  0
    3.4705  -14.9093   26.5285 C   0  0  0  0  0  0  0  0  0  0  0  0
    2.2022  -15.2678   27.6144 S   0  0  0  0  0  0  0  0  0  0  0  0
    1.3630  -13.8773   27.0751 C   0  0  0  0  0  0  0  0  0  0  0  0
    1.9746  -13.1425   26.1713 N   0  0  0  0  0  0  0  0  0  0  0  0
    3.2426  -13.6901   25.9127 C   0  0  0  0  0  0  0  0  0  0  0  0
    4.1792  -13.0214   24.9839 C   0  0  0  0  0  0  0  0  0  0  0  0
    5.3018  -13.3222   24.9184 O   0  0  0  0  0  0  0  0  0  0  0  0
    3.3664  -12.0251   24.1476 N   0  0  0  0  0  0  0  0  0  0  0  0
    3.7384  -11.2523   22.9857 C   0  0  2  0  0  0  0  0  0  0  0  0
    4.2366  -12.2062   21.9096 C   0  0  0  0  0  0  0  0  0  0  0  0
    4.8148  -10.1923   23.2407 C   0  0  2  0  0  0  0  0  0  0  0  0
    4.3840   -9.1450   24.2460 C   0  0  0  0  0  0  0  0  0  0  0  0
    5.0530   -9.5335   22.0652 F   0  0  0  0  0  0  0  0  0  0  0  0
  1  2  3  0
  2  3  1  0
  3  4  1  0
  4  5  1  0
  5  6  2  0
  6  7  1  0
  7  8  1  0
  8  9  2  0
  8 10  1  0
 10 11  1  0
 11 12  1  6
 11 13  1  0
 13 14  1  1
 13 15  1  0
  7  3  2  0
M  END
>  <placement_batch>  (37) 
CpKRS_FrAncestor_bulkdock_iter2_cluster_best5

>  <name>  (37) 
HVMDZJZSCHFLGA-UHFFFAOYSA-N-P48

>  <HIPPO Pose ID>  (37) 
54210

>  <inchikey>  (37) 
HVMDZJZSCHFLGA-UHFFFAOYSA-N

>  <inspiration_score>  (37) 
0.692

>  <tags>  (37) 
CpKRS_FrAncestor_bulkdock_iter2,CpKRS_FrAncestor_bulkdock_iter2_cluster_best5,BulkDock Fragalysis export,fragmenstein_placed,CpKRS_FrAncestor_bulkdock_iter2_exported

>  <distance_score>  (37) 
0.534614

>  <ref_pdb>  (37) 
x0540b

>  <alias>  (37) 
HVMDZJZSCHFLGA-UHFFFAOYSA-N-P48

>  <subsites>  (37) 


>  <smiles>  (37) 
C#Cc1scnc1C(=O)NC(C)C(C)F

>  <HIPPO Compound ID>  (37) 
309572

>  <ref_mols>  (37) 
x0504a

>  <energy_score>  (37) 
-67.936809

$$$$
DCICZXLKQYVJBG-UHFFFAOYSA-N-P40
     RDKit          3D

 16 16  0  0  0  0  0  0  0  0999 V2000
    1.7597  -16.9863   25.8568 C   0  0  0  0  0  0  0  0  0  0  0  0
    2.0104  -15.5456   25.5164 C   0  0  0  0  0  0  0  0  0  0  0  0
    1.0039  -14.7918   25.0439 C   0  0  0  0  0  0  0  0  0  0  0  0
    1.0047  -13.0483   24.4212 Br  0  0  0  0  0  0  0  0  0  0  0  0
    3.4624  -15.1500   25.6490 C   0  0  0  0  0  0  0  0  0  0  0  0
    4.3085  -15.9017   25.3790 O   0  0  0  0  0  0  0  0  0  0  0  0
    3.5410  -13.7043   26.1572 N   0  0  0  0  0  0  0  0  0  0  0  0
    4.6724  -12.8453   26.3510 C   0  0  0  0  0  0  0  0  0  0  0  0
    4.8293  -11.9121   25.1838 C   0  0  0  0  0  0  0  0  0  0  0  0
    5.1867  -10.5745   25.3702 C   0  0  0  0  0  0  0  0  0  0  0  0
    5.3280   -9.7466   24.2589 C   0  0  0  0  0  0  0  0  0  0  0  0
    5.7813   -8.3309   24.4078 C   0  0  0  0  0  0  0  0  0  0  0  0
    5.1107  -10.1722   23.0010 N   0  0  0  0  0  0  0  0  0  0  0  0
    4.8353  -11.4793   22.8302 C   0  0  0  0  0  0  0  0  0  0  0  0
    4.7730  -11.9679   21.4335 C   0  0  0  0  0  0  0  0  0  0  0  0
    4.6864  -12.3744   23.8764 C   0  0  0  0  0  0  0  0  0  0  0  0
  1  2  1  0
  2  3  2  3
  3  4  1  0
  2  5  1  0
  5  6  2  0
  5  7  1  0
  7  8  1  0
  8  9  1  0
  9 10  2  0
 10 11  1  0
 11 12  1  0
 11 13  2  0
 13 14  1  0
 14 15  1  0
 14 16  2  0
 16  9  1  0
M  END
>  <placement_batch>  (38) 
CpKRS_FrAncestor_bulkdock_iter2_cluster_best5

>  <name>  (38) 
DCICZXLKQYVJBG-UHFFFAOYSA-N-P40

>  <HIPPO Pose ID>  (38) 
54312

>  <inchikey>  (38) 
DCICZXLKQYVJBG-UHFFFAOYSA-N

>  <inspiration_score>  (38) 
0.746

>  <tags>  (38) 
CpKRS_FrAncestor_bulkdock_iter2,CpKRS_FrAncestor_bulkdock_iter2_cluster_best5,BulkDock Fragalysis export,fragmenstein_placed,CpKRS_FrAncestor_bulkdock_iter2_exported

>  <distance_score>  (38) 
0.816425

>  <ref_pdb>  (38) 
x0540b

>  <alias>  (38) 
DCICZXLKQYVJBG-UHFFFAOYSA-N-P40

>  <subsites>  (38) 


>  <smiles>  (38) 
CC(=CBr)C(=O)NCc1cc(C)nc(C)c1

>  <HIPPO Compound ID>  (38) 
122163

>  <ref_mols>  (38) 
x0602b

>  <energy_score>  (38) 
-22.331596

$$$$
XQNXSVKCCPDHNP-UHFFFAOYSA-N-P40
     RDKit          3D

 15 15  0  0  0  0  0  0  0  0999 V2000
    2.0066  -17.0252   26.1117 C   0  0  0  0  0  0  0  0  0  0  0  0
    2.2141  -15.5638   25.8568 C   0  0  0  0  0  0  0  0  0  0  0  0
    1.1484  -14.7467   25.8469 C   0  0  0  0  0  0  0  0  0  0  0  0
    1.0262  -12.9324   25.5013 Br  0  0  0  0  0  0  0  0  0  0  0  0
    3.6640  -15.2360   25.5966 C   0  0  0  0  0  0  0  0  0  0  0  0
    4.3605  -16.0186   25.0934 O   0  0  0  0  0  0  0  0  0  0  0  0
    3.9529  -13.8114   26.0711 N   0  0  0  0  0  0  0  0  0  0  0  0
    5.1291  -13.0117   25.9443 C   0  0  0  0  0  0  0  0  0  0  0  0
    5.0042  -12.1356   24.7285 C   0  0  0  0  0  0  0  0  0  0  0  0
    4.6188  -12.6696   23.4927 C   0  0  0  0  0  0  0  0  0  0  0  0
    4.5399  -11.8305   22.3996 C   0  0  0  0  0  0  0  0  0  0  0  0
    4.8162  -10.5096   22.4493 N   0  0  0  0  0  0  0  0  0  0  0  0
    5.2392  -10.0104   23.6324 C   0  0  0  0  0  0  0  0  0  0  0  0
    5.6397   -8.5685   23.6597 C   0  0  0  0  0  0  0  0  0  0  0  0
    5.3280  -10.7791   24.7896 C   0  0  0  0  0  0  0  0  0  0  0  0
  1  2  1  0
  2  3  2  3
  3  4  1  0
  2  5  1  0
  5  6  2  0
  5  7  1  0
  7  8  1  0
  8  9  1  0
  9 10  2  0
 10 11  1  0
 11 12  2  0
 12 13  1  0
 13 14  1  0
 13 15  2  0
 15  9  1  0
M  END
>  <placement_batch>  (39) 
CpKRS_FrAncestor_bulkdock_iter2_cluster_best5

>  <name>  (39) 
XQNXSVKCCPDHNP-UHFFFAOYSA-N-P40

>  <HIPPO Pose ID>  (39) 
54320

>  <inchikey>  (39) 
XQNXSVKCCPDHNP-UHFFFAOYSA-N

>  <inspiration_score>  (39) 
0.849

>  <tags>  (39) 
CpKRS_FrAncestor_bulkdock_iter2,CpKRS_FrAncestor_bulkdock_iter2_cluster_best5,BulkDock Fragalysis export,fragmenstein_placed,CpKRS_FrAncestor_bulkdock_iter2_exported

>  <distance_score>  (39) 
0.566526

>  <ref_pdb>  (39) 
x0540b

>  <alias>  (39) 
XQNXSVKCCPDHNP-UHFFFAOYSA-N-P40

>  <subsites>  (39) 


>  <smiles>  (39) 
CC(=CBr)C(=O)NCc1ccnc(C)c1

>  <HIPPO Compound ID>  (39) 
303341

>  <ref_mols>  (39) 
x0602b

>  <energy_score>  (39) 
-21.100261

$$$$
XBHQZIACAMNBRL-UHFFFAOYSA-N-P52
     RDKit          3D

 14 14  0  0  0  0  0  0  0  0999 V2000
   20.8462   10.1359   22.5599 C   0  0  0  0  0  0  0  0  0  0  0  0
   21.3346   10.3402   23.9835 C   0  0  0  0  0  0  0  0  0  0  0  0
   21.0205   11.7335   24.5226 C   0  0  0  0  0  0  0  0  0  0  0  0
   22.8105    9.9950   24.0713 C   0  0  0  0  0  0  0  0  0  0  0  0
   23.7474   10.7542   23.3347 C   0  0  0  0  0  0  0  0  0  0  0  0
   25.1086   10.4465   23.3466 C   0  0  0  0  0  0  0  0  0  0  0  0
   26.3177   11.4594   22.3065 Br  0  0  0  0  0  0  0  0  0  0  0  0
   25.5787    9.3818   24.1002 C   0  0  0  0  0  0  0  0  0  0  0  0
   24.6772    8.6113   24.8306 C   0  0  0  0  0  0  0  0  0  0  0  0
   23.3031    8.9097   24.8179 C   0  0  0  0  0  0  0  0  0  0  0  0
   22.2451    7.8430   25.7589 S   0  0  0  0  0  0  0  0  0  0  0  0
   21.5003    8.8928   26.8479 N   0  0  0  0  0  0  0  0  0  0  0  0
   21.1940    7.3266   24.9194 O   0  0  0  0  0  0  0  0  0  0  0  0
   23.0561    6.9907   26.5963 O   0  0  0  0  0  0  0  0  0  0  0  0
  1  2  1  0
  2  3  1  0
  2  4  1  0
  4  5  2  0
  5  6  1  0
  6  7  1  0
  6  8  2  0
  8  9  1  0
  9 10  2  0
 10 11  1  0
 11 12  1  0
 11 13  2  0
 11 14  2  0
 10  4  1  0
M  END
>  <placement_batch>  (40) 
CpKRS_FrAncestor_bulkdock_iter2_cluster_best5

>  <name>  (40) 
XBHQZIACAMNBRL-UHFFFAOYSA-N-P52

>  <HIPPO Pose ID>  (40) 
54349

>  <inchikey>  (40) 
XBHQZIACAMNBRL-UHFFFAOYSA-N

>  <inspiration_score>  (40) 
0.598

>  <tags>  (40) 
CpKRS_FrAncestor_bulkdock_iter2,CpKRS_FrAncestor_bulkdock_iter2_cluster_best5,BulkDock Fragalysis export,fragmenstein_placed,CpKRS_FrAncestor_bulkdock_iter2_exported

>  <distance_score>  (40) 
0.493725

>  <ref_pdb>  (40) 
x0540b

>  <alias>  (40) 
XBHQZIACAMNBRL-UHFFFAOYSA-N-P52

>  <subsites>  (40) 


>  <smiles>  (40) 
CC(C)c1cc(Br)ccc1S(N)(=O)=O

>  <HIPPO Compound ID>  (40) 
449147

>  <ref_mols>  (40) 
x0639a

>  <energy_score>  (40) 
-37.655551

$$$$
OGAUXGQLRXYROS-UHFFFAOYSA-N-P53
     RDKit          3D

 14 14  0  0  0  0  0  0  0  0999 V2000
   20.9768    8.9946   26.2174 C   0  0  0  0  0  0  0  0  0  0  0  0
   21.8720    8.0702   25.3991 C   0  0  0  0  0  0  0  0  0  0  0  0
   21.0425    7.0028   24.6756 C   0  0  0  0  0  0  0  0  0  0  0  0
   22.6926    8.8596   24.4004 C   0  0  0  0  0  0  0  0  0  0  0  0
   22.0238    9.5963   23.4156 C   0  0  0  0  0  0  0  0  0  0  0  0
   22.7372   10.3065   22.4630 C   0  0  0  0  0  0  0  0  0  0  0  0
   24.1213   10.3807   22.5060 C   0  0  0  0  0  0  0  0  0  0  0  0
   24.8044    9.6645   23.4773 C   0  0  0  0  0  0  0  0  0  0  0  0
   24.0945    8.8709   24.3835 C   0  0  0  0  0  0  0  0  0  0  0  0
   24.8333    8.1390   25.2725 O   0  0  0  0  0  0  0  0  0  0  0  0
   25.1437    6.5656   24.9686 S   0  0  0  0  0  0  0  0  0  0  0  0
   24.7103    6.2430   23.3808 N   0  0  0  0  0  0  0  0  0  0  0  0
   26.5781    6.3735   25.0077 O   0  0  0  0  0  0  0  0  0  0  0  0
   24.2763    5.7538   25.7936 O   0  0  0  0  0  0  0  0  0  0  0  0
  1  2  1  0
  2  3  1  0
  2  4  1  0
  4  5  2  0
  5  6  1  0
  6  7  2  0
  7  8  1  0
  8  9  2  0
  9 10  1  0
 10 11  1  0
 11 12  1  0
 11 13  2  0
 11 14  2  0
  9  4  1  0
M  END
>  <placement_batch>  (41) 
CpKRS_FrAncestor_bulkdock_iter2_cluster_best5

>  <name>  (41) 
OGAUXGQLRXYROS-UHFFFAOYSA-N-P53

>  <HIPPO Pose ID>  (41) 
54378

>  <inchikey>  (41) 
OGAUXGQLRXYROS-UHFFFAOYSA-N

>  <inspiration_score>  (41) 
0.407

>  <tags>  (41) 
CpKRS_FrAncestor_bulkdock_iter2,CpKRS_FrAncestor_bulkdock_iter2_cluster_best5,BulkDock Fragalysis export,fragmenstein_placed,CpKRS_FrAncestor_bulkdock_iter2_exported

>  <distance_score>  (41) 
0.768247

>  <ref_pdb>  (41) 
x0540b

>  <alias>  (41) 
OGAUXGQLRXYROS-UHFFFAOYSA-N-P53

>  <subsites>  (41) 


>  <smiles>  (41) 
CC(C)c1ccccc1OS(N)(=O)=O

>  <HIPPO Compound ID>  (41) 
449155

>  <ref_mols>  (41) 
x0639b

>  <energy_score>  (41) 
-29.590559

$$$$
HEMIXGUSSGYDFQ-UHFFFAOYSA-N-P54
     RDKit          3D

 17 17  0  0  0  0  0  0  0  0999 V2000
   10.6998  -37.9207    9.9397 C   0  0  0  0  0  0  0  0  0  0  0  0
    9.7071  -36.9223   10.5506 C   0  0  0  0  0  0  0  0  0  0  0  0
   10.4431  -35.9613   11.4805 C   0  0  0  0  0  0  0  0  0  0  0  0
    8.5743  -37.6178   11.2938 C   0  0  0  0  0  0  0  0  0  0  0  0
    8.9099  -38.4927   12.3491 C   0  0  0  0  0  0  0  0  0  0  0  0
    7.9347  -39.1557   13.0944 C   0  0  0  0  0  0  0  0  0  0  0  0
    6.5913  -38.9735   12.8014 C   0  0  0  0  0  0  0  0  0  0  0  0
    6.2228  -38.1097   11.7747 C   0  0  0  0  0  0  0  0  0  0  0  0
    7.2001  -37.4258   11.0257 C   0  0  0  0  0  0  0  0  0  0  0  0
    6.5989  -36.2065    9.8652 S   0  0  0  0  0  0  0  0  0  0  0  0
    7.3498  -34.9893   10.1043 O   0  0  0  0  0  0  0  0  0  0  0  0
    5.1546  -36.1698    9.9440 O   0  0  0  0  0  0  0  0  0  0  0  0
    7.0445  -36.7805    8.3677 N   0  0  0  0  0  0  0  0  0  0  0  0
    6.5551  -37.9946    7.6862 C   0  0  0  0  0  0  0  0  0  0  0  0
    7.5148  -39.1537    7.9660 C   0  0  0  0  0  0  0  0  0  0  0  0
    6.5840  -37.6857    6.1772 C   0  0  0  0  0  0  0  0  0  0  0  0
    5.1270  -38.3894    8.0637 C   0  0  0  0  0  0  0  0  0  0  0  0
  1  2  1  0
  2  3  1  0
  2  4  1  0
  4  5  2  0
  5  6  1  0
  6  7  2  0
  7  8  1  0
  8  9  2  0
  9 10  1  0
 10 11  2  0
 10 12  2  0
 10 13  1  0
 13 14  1  0
 14 15  1  0
 14 16  1  0
 14 17  1  0
  9  4  1  0
M  END
>  <placement_batch>  (42) 
CpKRS_FrAncestor_bulkdock_iter2_cluster_best5

>  <name>  (42) 
HEMIXGUSSGYDFQ-UHFFFAOYSA-N-P54

>  <HIPPO Pose ID>  (42) 
54400

>  <inchikey>  (42) 
HEMIXGUSSGYDFQ-UHFFFAOYSA-N

>  <inspiration_score>  (42) 
0.84

>  <tags>  (42) 
CpKRS_FrAncestor_bulkdock_iter2,CpKRS_FrAncestor_bulkdock_iter2_cluster_best5,BulkDock Fragalysis export,fragmenstein_placed,CpKRS_FrAncestor_bulkdock_iter2_exported

>  <distance_score>  (42) 
0.382857

>  <ref_pdb>  (42) 
x0540b

>  <alias>  (42) 
HEMIXGUSSGYDFQ-UHFFFAOYSA-N-P54

>  <subsites>  (42) 


>  <smiles>  (42) 
CC(C)c1ccccc1S(=O)(=O)NC(C)(C)C

>  <HIPPO Compound ID>  (42) 
449162

>  <ref_mols>  (42) 
x0639c

>  <energy_score>  (42) 
-73.509735

$$$$
QRCQQTSZLNSXOP-UHFFFAOYSA-N-P52
     RDKit          3D

 16 16  0  0  0  0  0  0  0  0999 V2000
   27.8955   10.4161   24.3496 C   0  0  0  0  0  0  0  0  0  0  0  0
   27.0115    9.2203   23.9851 C   0  0  0  0  0  0  0  0  0  0  0  0
   27.4085    8.6490   22.6219 C   0  0  0  0  0  0  0  0  0  0  0  0
   25.5327    9.5589   24.0181 C   0  0  0  0  0  0  0  0  0  0  0  0
   25.0080   10.6296   23.2955 C   0  0  0  0  0  0  0  0  0  0  0  0
   23.6400   10.9054   23.3277 C   0  0  0  0  0  0  0  0  0  0  0  0
   22.7401   10.1370   24.0854 C   0  0  0  0  0  0  0  0  0  0  0  0
   21.2589   10.4725   24.0800 C   0  0  0  0  0  0  0  0  0  0  0  0
   20.9614   11.8792   24.5960 C   0  0  0  0  0  0  0  0  0  0  0  0
   20.6980   10.2254   22.6913 C   0  0  0  0  0  0  0  0  0  0  0  0
   23.2658    9.0423   24.7846 C   0  0  0  0  0  0  0  0  0  0  0  0
   22.1817    7.9685   25.6867 S   0  0  0  0  0  0  0  0  0  0  0  0
   23.1864    6.7376   26.2178 N   0  0  0  0  0  0  0  0  0  0  0  0
   21.2649    7.3351   24.7717 O   0  0  0  0  0  0  0  0  0  0  0  0
   21.7366    8.6661   26.8736 O   0  0  0  0  0  0  0  0  0  0  0  0
   24.6450    8.7624   24.7536 C   0  0  0  0  0  0  0  0  0  0  0  0
  1  2  1  0
  2  3  1  0
  2  4  1  0
  4  5  2  0
  5  6  1  0
  6  7  2  0
  7  8  1  0
  8  9  1  0
  8 10  1  0
  7 11  1  0
 11 12  1  0
 12 13  1  0
 12 14  2  0
 12 15  2  0
 11 16  2  0
 16  4  1  0
M  END
>  <placement_batch>  (43) 
CpKRS_FrAncestor_bulkdock_iter2_cluster_best5

>  <name>  (43) 
QRCQQTSZLNSXOP-UHFFFAOYSA-N-P52

>  <HIPPO Pose ID>  (43) 
54413

>  <inchikey>  (43) 
QRCQQTSZLNSXOP-UHFFFAOYSA-N

>  <inspiration_score>  (43) 
0.563

>  <tags>  (43) 
CpKRS_FrAncestor_bulkdock_iter2,CpKRS_FrAncestor_bulkdock_iter2_cluster_best5,BulkDock Fragalysis export,fragmenstein_placed,CpKRS_FrAncestor_bulkdock_iter2_exported

>  <distance_score>  (43) 
0.508532

>  <ref_pdb>  (43) 
x0540b

>  <alias>  (43) 
QRCQQTSZLNSXOP-UHFFFAOYSA-N-P52

>  <subsites>  (43) 


>  <smiles>  (43) 
CC(C)c1ccc(C(C)C)c(S(N)(=O)=O)c1

>  <HIPPO Compound ID>  (43) 
449166

>  <ref_mols>  (43) 
x0639a

>  <energy_score>  (43) 
-45.850068

$$$$
NVJCPZZLLTWMRN-UHFFFAOYSA-N-P23
     RDKit          3D

 15 15  0  0  0  0  0  0  0  0999 V2000
   25.5873    3.5536   27.7115 C   0  0  0  0  0  0  0  0  0  0  0  0
   24.9393    3.8550   26.3559 C   0  0  0  0  0  0  0  0  0  0  0  0
   25.7195    3.1918   25.2195 C   0  0  0  0  0  0  0  0  0  0  0  0
   24.7705    5.3416   26.0988 C   0  0  0  0  0  0  0  0  0  0  0  0
   25.8195    6.2485   26.2851 C   0  0  0  0  0  0  0  0  0  0  0  0
   25.6337    7.6032   26.0243 C   0  0  0  0  0  0  0  0  0  0  0  0
   24.3943    8.0666   25.5833 C   0  0  0  0  0  0  0  0  0  0  0  0
   23.3258    7.1862   25.3747 C   0  0  0  0  0  0  0  0  0  0  0  0
   21.9580    7.6776   24.9427 C   0  0  0  0  0  0  0  0  0  0  0  0
   22.1043    8.6883   23.9662 O   0  0  0  0  0  0  0  0  0  0  0  0
   21.3992   10.1291   24.1512 S   0  0  0  0  0  0  0  0  0  0  0  0
   22.7448   11.1097   24.2797 N   0  0  0  0  0  0  0  0  0  0  0  0
   20.7635   10.2333   25.4432 O   0  0  0  0  0  0  0  0  0  0  0  0
   20.7595   10.5109   22.9174 O   0  0  0  0  0  0  0  0  0  0  0  0
   23.5382    5.8238   25.6237 C   0  0  0  0  0  0  0  0  0  0  0  0
  1  2  1  0
  2  3  1  0
  2  4  1  0
  4  5  2  0
  5  6  1  0
  6  7  2  0
  7  8  1  0
  8  9  1  0
  9 10  1  0
 10 11  1  0
 11 12  1  0
 11 13  2  0
 11 14  2  0
  8 15  2  0
 15  4  1  0
M  END
>  <placement_batch>  (44) 
CpKRS_FrAncestor_bulkdock_iter2_cluster_best5

>  <name>  (44) 
NVJCPZZLLTWMRN-UHFFFAOYSA-N-P23

>  <HIPPO Pose ID>  (44) 
54427

>  <inchikey>  (44) 
NVJCPZZLLTWMRN-UHFFFAOYSA-N

>  <inspiration_score>  (44) 
0.614

>  <tags>  (44) 
CpKRS_FrAncestor_bulkdock_iter2,CpKRS_FrAncestor_bulkdock_iter2_cluster_best5,BulkDock Fragalysis export,fragmenstein_placed,CpKRS_FrAncestor_bulkdock_iter2_exported

>  <distance_score>  (44) 
0.349968

>  <ref_pdb>  (44) 
x0540b

>  <alias>  (44) 
NVJCPZZLLTWMRN-UHFFFAOYSA-N-P23

>  <subsites>  (44) 


>  <smiles>  (44) 
CC(C)c1cccc(COS(N)(=O)=O)c1

>  <HIPPO Compound ID>  (44) 
449169

>  <ref_mols>  (44) 
x0472c

>  <energy_score>  (44) 
-34.200491

$$$$
ZQINEUYZLUNPHE-UHFFFAOYSA-N-P21
     RDKit          3D

 14 14  0  0  0  0  0  0  0  0999 V2000
   20.7336    7.8045   25.4296 C   0  0  0  0  0  0  0  0  0  0  0  0
   21.9880    8.5587   25.0476 C   0  0  1  0  0  0  0  0  0  0  0  0
   22.9147    7.7711   24.1162 C   0  0  0  0  0  0  0  0  0  0  0  0
   23.8354    6.8698   24.9091 C   0  0  0  0  0  0  0  0  0  0  0  0
   23.6247    5.4883   24.9565 C   0  0  0  0  0  0  0  0  0  0  0  0
   24.4418    4.6682   25.7400 C   0  0  0  0  0  0  0  0  0  0  0  0
   25.4758    5.2236   26.4882 C   0  0  0  0  0  0  0  0  0  0  0  0
   25.6935    6.5931   26.4317 C   0  0  0  0  0  0  0  0  0  0  0  0
   26.6639    7.1398   27.1765 F   0  0  0  0  0  0  0  0  0  0  0  0
   24.8936    7.4168   25.6467 C   0  0  0  0  0  0  0  0  0  0  0  0
   21.6140   10.1805   24.4093 S   0  0  0  0  0  0  0  0  0  0  0  0
   23.1517   10.8468   24.5092 N   0  0  0  0  0  0  0  0  0  0  0  0
   21.2972   10.1542   23.0031 O   0  0  0  0  0  0  0  0  0  0  0  0
   20.8444   10.9290   25.3775 O   0  0  0  0  0  0  0  0  0  0  0  0
  2  1  1  6
  2  3  1  0
  3  4  1  0
  4  5  2  0
  5  6  1  0
  6  7  2  0
  7  8  1  0
  8  9  1  0
  8 10  2  0
  2 11  1  0
 11 12  1  0
 11 13  2  0
 11 14  2  0
 10  4  1  0
M  END
>  <placement_batch>  (45) 
CpKRS_FrAncestor_bulkdock_iter2_cluster_best5

>  <name>  (45) 
ZQINEUYZLUNPHE-UHFFFAOYSA-N-P21

>  <HIPPO Pose ID>  (45) 
54428

>  <inchikey>  (45) 
ZQINEUYZLUNPHE-UHFFFAOYSA-N

>  <inspiration_score>  (45) 
0.75

>  <tags>  (45) 
CpKRS_FrAncestor_bulkdock_iter2,CpKRS_FrAncestor_bulkdock_iter2_cluster_best5,BulkDock Fragalysis export,fragmenstein_placed,CpKRS_FrAncestor_bulkdock_iter2_exported

>  <distance_score>  (45) 
0.297285

>  <ref_pdb>  (45) 
x0540b

>  <alias>  (45) 
ZQINEUYZLUNPHE-UHFFFAOYSA-N-P21

>  <subsites>  (45) 


>  <smiles>  (45) 
CC(Cc1cccc(F)c1)S(N)(=O)=O

>  <HIPPO Compound ID>  (45) 
449170

>  <ref_mols>  (45) 
x0472a

>  <energy_score>  (45) 
-28.088236

$$$$
LIPXVKLYBMJXOC-UHFFFAOYSA-N-P27
     RDKit          3D

 17 17  0  0  0  0  0  0  0  0999 V2000
   19.3281   22.6425   28.5207 C   0  0  0  0  0  0  0  0  0  0  0  0
   19.1316   23.1464   27.0903 C   0  0  0  0  0  0  0  0  0  0  0  0
   19.8480   24.5132   26.9593 C   0  0  0  0  0  0  0  0  0  0  0  0
   17.6149   23.2575   26.8165 C   0  0  0  0  0  0  0  0  0  0  0  0
   16.8676   22.1197   26.4630 C   0  0  0  0  0  0  0  0  0  0  0  0
   15.5168   22.2117   26.1280 C   0  0  0  0  0  0  0  0  0  0  0  0
   14.8718   23.4449   26.1818 C   0  0  0  0  0  0  0  0  0  0  0  0
   13.1905   23.5095   25.6979 S   0  0  0  0  0  0  0  0  0  0  0  0
   12.9739   25.0010   24.9612 N   0  0  0  0  0  0  0  0  0  0  0  0
   12.3774   23.5584   26.8836 O   0  0  0  0  0  0  0  0  0  0  0  0
   12.9719   22.5692   24.6253 O   0  0  0  0  0  0  0  0  0  0  0  0
   15.5586   24.5820   26.5887 C   0  0  0  0  0  0  0  0  0  0  0  0
   16.9184   24.4816   26.9107 C   0  0  0  0  0  0  0  0  0  0  0  0
   19.8648   22.1723   26.1329 C   0  0  0  0  0  0  0  0  0  0  0  0
   21.1933   22.1313   26.4132 F   0  0  0  0  0  0  0  0  0  0  0  0
   19.4261   20.9018   26.2246 F   0  0  0  0  0  0  0  0  0  0  0  0
   19.7424   22.5752   24.8454 F   0  0  0  0  0  0  0  0  0  0  0  0
  1  2  1  0
  2  3  1  0
  2  4  1  0
  4  5  2  0
  5  6  1  0
  6  7  2  0
  7  8  1  0
  8  9  1  0
  8 10  2  0
  8 11  2  0
  7 12  1  0
 12 13  2  0
  2 14  1  0
 14 15  1  0
 14 16  1  0
 14 17  1  0
 13  4  1  0
M  END
>  <placement_batch>  (46) 
CpKRS_FrAncestor_bulkdock_iter2_cluster_best5

>  <name>  (46) 
LIPXVKLYBMJXOC-UHFFFAOYSA-N-P27

>  <HIPPO Pose ID>  (46) 
54621

>  <inchikey>  (46) 
LIPXVKLYBMJXOC-UHFFFAOYSA-N

>  <inspiration_score>  (46) 
0.676

>  <tags>  (46) 
CpKRS_FrAncestor_bulkdock_iter2,CpKRS_FrAncestor_bulkdock_iter2_cluster_best5,BulkDock Fragalysis export,fragmenstein_placed,CpKRS_FrAncestor_bulkdock_iter2_exported

>  <distance_score>  (46) 
0.762349

>  <ref_pdb>  (46) 
x0540b

>  <alias>  (46) 
LIPXVKLYBMJXOC-UHFFFAOYSA-N-P27

>  <subsites>  (46) 


>  <smiles>  (46) 
CC(C)(c1ccc(S(N)(=O)=O)cc1)C(F)(F)F

>  <HIPPO Compound ID>  (46) 
449201

>  <ref_mols>  (46) 
x0483a

>  <energy_score>  (46) 
-39.767707

$$$$
DXYKYZLLNRLXHR-UHFFFAOYSA-N-P6
     RDKit          3D

 15 15  0  0  0  0  0  0  0  0999 V2000
    3.8622  -14.4623   23.1475 C   0  0  0  0  0  0  0  0  0  0  0  0
    3.2560  -14.2286   24.5350 C   0  0  0  0  0  0  0  0  0  0  0  0
    2.7515  -15.5647   25.1007 C   0  0  0  0  0  0  0  0  0  0  0  0
    4.2007  -13.4606   25.5202 C   0  0  1  0  0  0  0  0  0  0  0  0
    5.4526  -14.2780   25.8815 C   0  0  0  0  0  0  0  0  0  0  0  0
    4.6620  -12.1076   24.8931 C   0  0  0  0  0  0  0  0  0  0  0  0
    5.0957  -11.1289   25.8941 N   0  0  0  0  0  0  0  0  0  0  0  0
    5.6977   -9.8924   25.3897 C   0  0  0  0  0  0  0  0  0  0  0  0
    5.1720   -9.2555   24.0726 C   0  0  0  0  0  0  0  0  0  0  0  0
    3.6672   -9.0157   24.0913 C   0  0  0  0  0  0  0  0  0  0  0  0
    5.8986   -7.9273   23.8238 C   0  0  0  0  0  0  0  0  0  0  0  0
    5.4574  -10.0855   22.9381 O   0  0  0  0  0  0  0  0  0  0  0  0
    4.0535  -10.8954   26.9098 C   0  0  0  0  0  0  0  0  0  0  0  0
    2.9366  -11.9481   26.9066 C   0  0  0  0  0  0  0  0  0  0  0  0
    3.4675  -13.2642   26.7525 O   0  0  0  0  0  0  0  0  0  0  0  0
  1  2  1  0
  2  3  1  0
  2  4  1  0
  4  5  1  1
  4  6  1  0
  6  7  1  0
  7  8  1  0
  8  9  1  0
  9 10  1  0
  9 11  1  0
  9 12  1  0
  7 13  1  0
 13 14  1  0
 14 15  1  0
 15  4  1  0
M  END
>  <placement_batch>  (47) 
CpKRS_FrAncestor_bulkdock_iter2_cluster_best5

>  <name>  (47) 
DXYKYZLLNRLXHR-UHFFFAOYSA-N-P6

>  <HIPPO Pose ID>  (47) 
54645

>  <inchikey>  (47) 
DXYKYZLLNRLXHR-UHFFFAOYSA-N

>  <inspiration_score>  (47) 
0.635

>  <tags>  (47) 
CpKRS_FrAncestor_bulkdock_iter2,CpKRS_FrAncestor_bulkdock_iter2_cluster_best5,BulkDock Fragalysis export,fragmenstein_placed,CpKRS_FrAncestor_bulkdock_iter2_exported

>  <distance_score>  (47) 
0.513562

>  <ref_pdb>  (47) 
x0540b

>  <alias>  (47) 
DXYKYZLLNRLXHR-UHFFFAOYSA-N-P6

>  <subsites>  (47) 


>  <smiles>  (47) 
CC(C)C1(C)CN(CC(C)(C)O)CCO1

>  <HIPPO Compound ID>  (47) 
322991

>  <ref_mols>  (47) 
x0414a

>  <energy_score>  (47) 
-52.135213

$$$$
NZARSZQNPZXVQW-VUWPPUDQSA-N-P7
     RDKit          3D

 14 14  0  0  0  0  0  0  0  0999 V2000
    4.5552  -15.1767   23.9221 C   0  0  0  0  0  0  0  0  0  0  0  0
    3.9951  -14.8067   25.2977 C   0  0  0  0  0  0  0  0  0  0  0  0
    2.8192  -15.7458   25.6173 C   0  0  0  0  0  0  0  0  0  0  0  0
    3.6197  -13.2967   25.4651 C   0  0  2  0  0  0  0  0  0  0  0  0
    2.3790  -12.9384   24.6152 C   0  0  0  0  0  0  0  0  0  0  0  0
    4.8223  -12.3738   25.1009 C   0  0  0  0  0  0  0  0  0  0  0  0
    4.5506  -10.9517   25.4104 N   0  0  0  0  0  0  0  0  0  0  0  0
    5.6664  -10.0812   25.0248 C   0  0  0  0  0  0  0  0  0  0  0  0
    5.1697   -8.7458   24.4126 C   0  0  2  0  0  0  0  0  0  0  0  0
    4.3616   -9.0203   23.1418 C   0  0  0  0  0  0  0  0  0  0  0  0
    6.2801   -7.8546   24.0464 N   0  0  0  0  0  0  0  0  0  0  0  0
    4.2304  -10.8369   26.8483 C   0  0  0  0  0  0  0  0  0  0  0  0
    3.0812  -11.7729   27.2451 C   0  0  0  0  0  0  0  0  0  0  0  0
    3.3360  -13.1295   26.8750 O   0  0  0  0  0  0  0  0  0  0  0  0
  1  2  1  0
  2  3  1  0
  2  4  1  0
  4  5  1  6
  4  6  1  0
  6  7  1  0
  7  8  1  0
  8  9  1  0
  9 10  1  6
  9 11  1  0
  7 12  1  0
 12 13  1  0
 13 14  1  0
 14  4  1  0
M  END
>  <placement_batch>  (48) 
CpKRS_FrAncestor_bulkdock_iter2_cluster_best5

>  <name>  (48) 
NZARSZQNPZXVQW-VUWPPUDQSA-N-P7

>  <HIPPO Pose ID>  (48) 
54650

>  <inchikey>  (48) 
NZARSZQNPZXVQW-UHFFFAOYSA-N

>  <inspiration_score>  (48) 
0.907

>  <tags>  (48) 
CpKRS_FrAncestor_bulkdock_iter2,CpKRS_FrAncestor_bulkdock_iter2_cluster_best5,BulkDock Fragalysis export,fragmenstein_placed,CpKRS_FrAncestor_bulkdock_iter2_exported

>  <distance_score>  (48) 
0.462929

>  <ref_pdb>  (48) 
x0540b

>  <alias>  (48) 
NZARSZQNPZXVQW-VUWPPUDQSA-N-P7

>  <subsites>  (48) 


>  <smiles>  (48) 
CC(C)C1(C)CN(C[C@H](C)N)CCO1

>  <HIPPO Compound ID>  (48) 
449206

>  <ref_mols>  (48) 
x0414b

>  <energy_score>  (48) 
-62.74584

$$$$
IXTYAMKWXGBCOO-UHFFFAOYSA-N-P7
     RDKit          3D

 13 13  0  0  0  0  0  0  0  0999 V2000
    4.5033  -15.0300   23.7541 C   0  0  0  0  0  0  0  0  0  0  0  0
    4.0525  -14.7047   25.1811 C   0  0  0  0  0  0  0  0  0  0  0  0
    2.9417  -15.6911   25.5794 C   0  0  0  0  0  0  0  0  0  0  0  0
    3.6372  -13.2124   25.4077 C   0  0  2  0  0  0  0  0  0  0  0  0
    2.3023  -12.8966   24.6943 C   0  0  0  0  0  0  0  0  0  0  0  0
    4.7604  -12.2381   24.9366 C   0  0  0  0  0  0  0  0  0  0  0  0
    4.4511  -10.8318   25.2754 N   0  0  0  0  0  0  0  0  0  0  0  0
    5.4843   -9.9027   24.7884 C   0  0  0  0  0  0  0  0  0  0  0  0
    4.8705   -8.5108   24.5007 C   0  0  0  0  0  0  0  0  0  0  0  0
    3.6340   -8.6370   23.6832 N   0  0  0  0  0  0  0  0  0  0  0  0
    4.2705  -10.7348   26.7422 C   0  0  0  0  0  0  0  0  0  0  0  0
    3.2164  -11.7279   27.2529 C   0  0  0  0  0  0  0  0  0  0  0  0
    3.4957  -13.0683   26.8412 O   0  0  0  0  0  0  0  0  0  0  0  0
  1  2  1  0
  2  3  1  0
  2  4  1  0
  4  5  1  6
  4  6  1  0
  6  7  1  0
  7  8  1  0
  8  9  1  0
  9 10  1  0
  7 11  1  0
 11 12  1  0
 12 13  1  0
 13  4  1  0
M  END
>  <placement_batch>  (49) 
CpKRS_FrAncestor_bulkdock_iter2_cluster_best5

>  <name>  (49) 
IXTYAMKWXGBCOO-UHFFFAOYSA-N-P7

>  <HIPPO Pose ID>  (49) 
54656

>  <inchikey>  (49) 
IXTYAMKWXGBCOO-UHFFFAOYSA-N

>  <inspiration_score>  (49) 
0.615

>  <tags>  (49) 
CpKRS_FrAncestor_bulkdock_iter2,CpKRS_FrAncestor_bulkdock_iter2_cluster_best5,BulkDock Fragalysis export,fragmenstein_placed,CpKRS_FrAncestor_bulkdock_iter2_exported

>  <distance_score>  (49) 
0.541984

>  <ref_pdb>  (49) 
x0540b

>  <alias>  (49) 
IXTYAMKWXGBCOO-UHFFFAOYSA-N-P7

>  <subsites>  (49) 


>  <smiles>  (49) 
CC(C)C1(C)CN(CCN)CCO1

>  <HIPPO Compound ID>  (49) 
449208

>  <ref_mols>  (49) 
x0414b

>  <energy_score>  (49) 
-51.11557

$$$$
LQZHUNQARNTBCA-UHFFFAOYSA-N-P7
     RDKit          3D

 13 13  0  0  0  0  0  0  0  0999 V2000
    5.7718  -14.8653   25.6409 C   0  0  0  0  0  0  0  0  0  0  0  0
    4.3188  -14.6189   25.2063 C   0  0  0  0  0  0  0  0  0  0  0  0
    4.1587  -15.1118   23.7630 C   0  0  0  0  0  0  0  0  0  0  0  0
    3.8395  -13.1447   25.4543 C   0  0  2  0  0  0  0  0  0  0  0  0
    2.4176  -12.9551   24.8799 C   0  0  0  0  0  0  0  0  0  0  0  0
    4.8260  -12.1015   24.8567 C   0  0  0  0  0  0  0  0  0  0  0  0
    4.4652  -10.7052   25.2036 N   0  0  0  0  0  0  0  0  0  0  0  0
    5.4543   -9.7644   24.6353 C   0  0  0  0  0  0  0  0  0  0  0  0
    4.8281   -8.3688   24.5032 C   0  0  0  0  0  0  0  0  0  0  0  0
    3.5506   -8.4859   23.8473 O   0  0  0  0  0  0  0  0  0  0  0  0
    4.4073  -10.5990   26.6828 C   0  0  0  0  0  0  0  0  0  0  0  0
    3.4767  -11.6480   27.3079 C   0  0  0  0  0  0  0  0  0  0  0  0
    3.8164  -12.9752   26.8929 O   0  0  0  0  0  0  0  0  0  0  0  0
  1  2  1  0
  2  3  1  0
  2  4  1  0
  4  5  1  6
  4  6  1  0
  6  7  1  0
  7  8  1  0
  8  9  1  0
  9 10  1  0
  7 11  1  0
 11 12  1  0
 12 13  1  0
 13  4  1  0
M  END
>  <placement_batch>  (50) 
CpKRS_FrAncestor_bulkdock_iter2_cluster_best5

>  <name>  (50) 
LQZHUNQARNTBCA-UHFFFAOYSA-N-P7

>  <HIPPO Pose ID>  (50) 
54660

>  <inchikey>  (50) 
LQZHUNQARNTBCA-UHFFFAOYSA-N

>  <inspiration_score>  (50) 
0.603

>  <tags>  (50) 
CpKRS_FrAncestor_bulkdock_iter2,CpKRS_FrAncestor_bulkdock_iter2_cluster_best5,BulkDock Fragalysis export,fragmenstein_placed,CpKRS_FrAncestor_bulkdock_iter2_exported

>  <distance_score>  (50) 
0.616521

>  <ref_pdb>  (50) 
x0540b

>  <alias>  (50) 
LQZHUNQARNTBCA-UHFFFAOYSA-N-P7

>  <subsites>  (50) 


>  <smiles>  (50) 
CC(C)C1(C)CN(CCO)CCO1

>  <HIPPO Compound ID>  (50) 
449210

>  <ref_mols>  (50) 
x0414b

>  <energy_score>  (50) 
-56.158483

$$$$
USJOZFWVORWFOA-UHFFFAOYSA-N-P6
     RDKit          3D

 13 13  0  0  0  0  0  0  0  0999 V2000
    5.3434   -8.2290   21.9760 C   0  0  0  0  0  0  0  0  0  0  0  0
    5.6992   -8.2136   23.2694 C   0  0  0  0  0  0  0  0  0  0  0  0
    4.8546   -8.7864   24.3718 C   0  0  1  0  0  0  0  0  0  0  0  0
    3.4718   -8.7158   23.9658 O   0  0  0  0  0  0  0  0  0  0  0  0
    5.2441  -10.2629   24.6576 C   0  0  0  0  0  0  0  0  0  0  0  0
    4.1608  -10.9691   25.3469 N   0  0  0  0  0  0  0  0  0  0  0  0
    4.1167  -10.7161   26.7918 C   0  0  0  0  0  0  0  0  0  0  0  0
    2.8411  -11.3173   27.3935 C   0  0  0  0  0  0  0  0  0  0  0  0
    2.6451  -12.7094   27.1487 O   0  0  0  0  0  0  0  0  0  0  0  0
    3.6066  -13.2607   26.2588 C   0  0  0  0  0  0  0  0  0  0  0  0
    3.8695  -12.3869   24.9953 C   0  0  0  0  0  0  0  0  0  0  0  0
    2.5932  -12.3441   24.1294 C   0  0  0  0  0  0  0  0  0  0  0  0
    4.9531  -13.1389   24.2075 C   0  0  0  0  0  0  0  0  0  0  0  0
  1  2  2  0
  2  3  1  0
  3  4  1  6
  3  5  1  0
  5  6  1  0
  6  7  1  0
  7  8  1  0
  8  9  1  0
  9 10  1  0
 10 11  1  0
 11 12  1  0
 11 13  1  0
 11  6  1  0
M  END
>  <placement_batch>  (51) 
CpKRS_FrAncestor_bulkdock_iter2_cluster_best5

>  <name>  (51) 
USJOZFWVORWFOA-UHFFFAOYSA-N-P6

>  <HIPPO Pose ID>  (51) 
54781

>  <inchikey>  (51) 
USJOZFWVORWFOA-UHFFFAOYSA-N

>  <inspiration_score>  (51) 
0.711

>  <tags>  (51) 
CpKRS_FrAncestor_bulkdock_iter2,CpKRS_FrAncestor_bulkdock_iter2_cluster_best5,BulkDock Fragalysis export,fragmenstein_placed,CpKRS_FrAncestor_bulkdock_iter2_exported

>  <distance_score>  (51) 
0.788296

>  <ref_pdb>  (51) 
x0602b

>  <alias>  (51) 
USJOZFWVORWFOA-UHFFFAOYSA-N-P6

>  <subsites>  (51) 


>  <smiles>  (51) 
C=CC(O)CN1CCOCC1(C)C

>  <HIPPO Compound ID>  (51) 
450568

>  <ref_mols>  (51) 
x0414a

>  <energy_score>  (51) 
-45.542497

$$$$
RKUOMMXQKQORGV-UHFFFAOYSA-N-P6
     RDKit          3D

 15 15  0  0  0  0  0  0  0  0999 V2000
    6.0169   -6.6585   24.5649 C   0  0  0  0  0  0  0  0  0  0  0  0
    6.0302   -8.1623   24.6769 C   0  0  0  0  0  0  0  0  0  0  0  0
    5.0830   -8.8903   23.7381 C   0  0  2  0  0  0  0  0  0  0  0  0
    3.7274   -8.4260   23.8314 O   0  0  0  0  0  0  0  0  0  0  0  0
    5.1361  -10.4098   24.0046 C   0  0  0  0  0  0  0  0  0  0  0  0
    3.9975  -10.8848   24.8097 N   0  0  0  0  0  0  0  0  0  0  0  0
    4.1962  -10.6188   26.2546 C   0  0  0  0  0  0  0  0  0  0  0  0
    3.3089  -11.4458   27.1779 C   0  0  0  0  0  0  0  0  0  0  0  0
    3.4289  -12.8512   26.9862 O   0  0  0  0  0  0  0  0  0  0  0  0
    3.8258  -13.3013   25.6756 C   0  0  0  0  0  0  0  0  0  0  0  0
    3.0927  -14.6491   25.5086 C   0  0  0  0  0  0  0  0  0  0  0  0
    5.3348  -13.6243   25.7399 C   0  0  0  0  0  0  0  0  0  0  0  0
    3.4796  -12.2647   24.5207 C   0  0  0  0  0  0  0  0  0  0  0  0
    3.9132  -12.8353   23.1360 C   0  0  0  0  0  0  0  0  0  0  0  0
    1.9404  -12.0732   24.3698 C   0  0  0  0  0  0  0  0  0  0  0  0
  1  2  1  0
  2  3  1  0
  3  4  1  1
  3  5  1  0
  5  6  1  0
  6  7  1  0
  7  8  1  0
  8  9  1  0
  9 10  1  0
 10 11  1  0
 10 12  1  0
 10 13  1  0
 13 14  1  0
 13 15  1  0
 13  6  1  0
M  END
>  <placement_batch>  (52) 
CpKRS_FrAncestor_bulkdock_iter2_cluster_best5

>  <name>  (52) 
RKUOMMXQKQORGV-UHFFFAOYSA-N-P6

>  <HIPPO Pose ID>  (52) 
54793

>  <inchikey>  (52) 
RKUOMMXQKQORGV-UHFFFAOYSA-N

>  <inspiration_score>  (52) 
0.748

>  <tags>  (52) 
CpKRS_FrAncestor_bulkdock_iter2,CpKRS_FrAncestor_bulkdock_iter2_cluster_best5,BulkDock Fragalysis export,fragmenstein_placed,CpKRS_FrAncestor_bulkdock_iter2_exported

>  <distance_score>  (52) 
0.984825

>  <ref_pdb>  (52) 
x0602b

>  <alias>  (52) 
RKUOMMXQKQORGV-UHFFFAOYSA-N-P6

>  <subsites>  (52) 


>  <smiles>  (52) 
CCC(O)CN1CCOC(C)(C)C1(C)C

>  <HIPPO Compound ID>  (52) 
323004

>  <ref_mols>  (52) 
x0414a

>  <energy_score>  (52) 
-76.775574

$$$$
MKIJULTVFBZHNR-VEDVMXKPSA-N-P7
     RDKit          3D

 12 12  0  0  0  0  0  0  0  0999 V2000
    4.8591   -8.4808   21.9269 C   0  0  0  0  0  0  0  0  0  0  0  0
    4.3897   -8.8839   23.1157 C   0  0  0  0  0  0  0  0  0  0  0  0
    5.1062   -8.7237   24.4343 C   0  0  2  0  0  0  0  0  0  0  0  0
    6.1903   -7.8087   24.2647 O   0  0  0  0  0  0  0  0  0  0  0  0
    5.6246  -10.1097   24.8905 C   0  0  0  0  0  0  0  0  0  0  0  0
    4.5563  -11.0726   25.2224 N   0  0  0  0  0  0  0  0  0  0  0  0
    5.0588  -12.4623   25.1742 C   0  0  0  0  0  0  0  0  0  0  0  0
    3.9902  -13.4951   25.5556 C   0  0  0  0  0  0  0  0  0  0  0  0
    3.4343  -13.2084   26.8375 O   0  0  0  0  0  0  0  0  0  0  0  0
    2.8264  -11.9150   26.8237 C   0  0  0  0  0  0  0  0  0  0  0  0
    3.8641  -10.8106   26.5086 C   0  0  1  0  0  0  0  0  0  0  0  0
    4.8195  -10.6598   27.6882 C   0  0  0  0  0  0  0  0  0  0  0  0
  1  2  2  0
  2  3  1  0
  3  4  1  6
  3  5  1  0
  5  6  1  0
  6  7  1  0
  7  8  1  0
  8  9  1  0
  9 10  1  0
 10 11  1  0
 11 12  1  1
 11  6  1  0
M  END
>  <placement_batch>  (53) 
CpKRS_FrAncestor_bulkdock_iter2_cluster_best5

>  <name>  (53) 
MKIJULTVFBZHNR-VEDVMXKPSA-N-P7

>  <HIPPO Pose ID>  (53) 
54800

>  <inchikey>  (53) 
MKIJULTVFBZHNR-UHFFFAOYSA-N

>  <inspiration_score>  (53) 
0.897

>  <tags>  (53) 
CpKRS_FrAncestor_bulkdock_iter2,CpKRS_FrAncestor_bulkdock_iter2_cluster_best5,BulkDock Fragalysis export,fragmenstein_placed,CpKRS_FrAncestor_bulkdock_iter2_exported

>  <distance_score>  (53) 
0.595

>  <ref_pdb>  (53) 
x0602b

>  <alias>  (53) 
MKIJULTVFBZHNR-VEDVMXKPSA-N-P7

>  <subsites>  (53) 


>  <smiles>  (53) 
C=CC(O)CN1CCOC[C@H]1C

>  <HIPPO Compound ID>  (53) 
450569

>  <ref_mols>  (53) 
x0414b

>  <energy_score>  (53) 
-340.970161

$$$$
VJVALUQSCGXTMH-UHFFFAOYSA-N-P47
     RDKit          3D

 16 16  0  0  0  0  0  0  0  0999 V2000
    5.7229    7.2163   39.5784 C   0  0  0  0  0  0  0  0  0  0  0  0
    5.0465    8.5405   39.9165 C   0  0  0  0  0  0  0  0  0  0  0  0
    4.8975    9.4054   38.6708 C   0  0  0  0  0  0  0  0  0  0  0  0
    3.7186    8.2809   40.4201 O   0  0  0  0  0  0  0  0  0  0  0  0
    3.6324    8.0255   41.7547 C   0  0  0  0  0  0  0  0  0  0  0  0
    4.5618    8.1015   42.5502 O   0  0  0  0  0  0  0  0  0  0  0  0
    2.2108    7.6560   42.1610 C   0  0  2  0  0  0  0  0  0  0  0  0
    1.4608    8.9249   42.5280 C   0  0  0  0  0  0  0  0  0  0  0  0
    2.3090    6.7168   43.2677 N   0  0  0  0  0  0  0  0  0  0  0  0
    2.6940    5.2304   43.2834 C   0  0  0  0  0  0  0  0  0  0  0  0
    2.9193    4.5008   42.4058 O   0  0  0  0  0  0  0  0  0  0  0  0
    2.7845    4.7062   44.6451 C   0  0  0  0  0  0  0  0  0  0  0  0
    3.3987    3.5248   45.0274 C   0  0  0  0  0  0  0  0  0  0  0  0
    3.2929    3.1837   46.3616 N   0  0  0  0  0  0  0  0  0  0  0  0
    2.5870    4.1058   46.9781 C   0  0  0  0  0  0  0  0  0  0  0  0
    2.0711    5.4333   46.0184 S   0  0  0  0  0  0  0  0  0  0  0  0
  1  2  1  0
  2  3  1  0
  2  4  1  0
  4  5  1  0
  5  6  2  0
  5  7  1  0
  7  8  1  1
  7  9  1  0
  9 10  1  0
 10 11  2  0
 10 12  1  0
 12 13  2  0
 13 14  1  0
 14 15  2  0
 15 16  1  0
 16 12  1  0
M  END
>  <placement_batch>  (54) 
CpKRS_FrAncestor_bulkdock_iter2_cluster_best5

>  <name>  (54) 
VJVALUQSCGXTMH-UHFFFAOYSA-N-P47

>  <HIPPO Pose ID>  (54) 
54811

>  <inchikey>  (54) 
VJVALUQSCGXTMH-UHFFFAOYSA-N

>  <inspiration_score>  (54) 
0.813

>  <tags>  (54) 
CpKRS_FrAncestor_bulkdock_iter2,CpKRS_FrAncestor_bulkdock_iter2_cluster_best5,BulkDock Fragalysis export,fragmenstein_placed,CpKRS_FrAncestor_bulkdock_iter2_exported

>  <distance_score>  (54) 
0.60066

>  <ref_pdb>  (54) 
x0602b

>  <alias>  (54) 
VJVALUQSCGXTMH-UHFFFAOYSA-N-P47

>  <subsites>  (54) 


>  <smiles>  (54) 
CC(C)OC(=O)C(C)NC(=O)c1cncs1

>  <HIPPO Compound ID>  (54) 
155830

>  <ref_mols>  (54) 
x0504c

>  <energy_score>  (54) 
-66.345763

$$$$
KGKNXCPJFKGPQZ-UHFFFAOYSA-N-P39
     RDKit          3D

 19 19  0  0  0  0  0  0  0  0999 V2000
    0.2989  -14.6080   24.4503 C   0  0  0  0  0  0  0  0  0  0  0  0
    1.5725  -15.3394   24.0180 C   0  0  0  0  0  0  0  0  0  0  0  0
    1.2448  -16.4489   23.0181 C   0  0  0  0  0  0  0  0  0  0  0  0
    2.3145  -15.8399   25.2263 N   0  0  0  0  0  0  0  0  0  0  0  0
    1.6974  -17.0067   25.8827 C   0  0  0  0  0  0  0  0  0  0  0  0
    3.9972  -15.9749   25.0683 S   0  0  0  0  0  0  0  0  0  0  0  0
    4.5005  -16.9949   25.9566 O   0  0  0  0  0  0  0  0  0  0  0  0
    4.3328  -16.0040   23.6685 O   0  0  0  0  0  0  0  0  0  0  0  0
    4.5183  -14.5487   25.7645 N   0  0  0  0  0  0  0  0  0  0  0  0
    3.8398  -13.2685   25.5748 C   0  0  0  0  0  0  0  0  0  0  0  0
    4.2960  -12.4098   24.4231 C   0  0  0  0  0  0  0  0  0  0  0  0
    4.5672  -12.9283   23.1643 C   0  0  0  0  0  0  0  0  0  0  0  0
    4.9000  -12.0700   22.1434 C   0  0  0  0  0  0  0  0  0  0  0  0
    4.9679  -10.7367   22.2814 N   0  0  0  0  0  0  0  0  0  0  0  0
    4.7329  -10.1965   23.4907 C   0  0  0  0  0  0  0  0  0  0  0  0
    4.8082   -8.7894   23.6045 N   0  0  0  0  0  0  0  0  0  0  0  0
    5.4919   -8.3449   24.8222 C   0  0  0  0  0  0  0  0  0  0  0  0
    5.3725   -8.1915   22.3887 C   0  0  0  0  0  0  0  0  0  0  0  0
    4.3681  -11.0126   24.5688 C   0  0  0  0  0  0  0  0  0  0  0  0
  1  2  1  0
  2  3  1  0
  2  4  1  0
  4  5  1  0
  4  6  1  0
  6  7  2  0
  6  8  2  0
  6  9  1  0
  9 10  1  0
 10 11  1  0
 11 12  2  0
 12 13  1  0
 13 14  2  0
 14 15  1  0
 15 16  1  0
 16 17  1  0
 16 18  1  0
 15 19  2  0
 19 11  1  0
M  END
>  <placement_batch>  (55) 
CpKRS_FrAncestor_bulkdock_iter2_cluster_best5

>  <name>  (55) 
KGKNXCPJFKGPQZ-UHFFFAOYSA-N-P39

>  <HIPPO Pose ID>  (55) 
54902

>  <inchikey>  (55) 
KGKNXCPJFKGPQZ-UHFFFAOYSA-N

>  <inspiration_score>  (55) 
0.869

>  <tags>  (55) 
CpKRS_FrAncestor_bulkdock_iter2,CpKRS_FrAncestor_bulkdock_iter2_cluster_best5,BulkDock Fragalysis export,fragmenstein_placed,CpKRS_FrAncestor_bulkdock_iter2_exported

>  <distance_score>  (55) 
0.564319

>  <ref_pdb>  (55) 
x0602b

>  <alias>  (55) 
KGKNXCPJFKGPQZ-UHFFFAOYSA-N-P39

>  <subsites>  (55) 


>  <smiles>  (55) 
CC(C)N(C)S(=O)(=O)NCc1ccnc(N(C)C)c1

>  <HIPPO Compound ID>  (55) 
450600

>  <ref_mols>  (55) 
x0602a

>  <energy_score>  (55) 
-41.856808

$$$$
DKOJAWPGRUQDBI-UHFFFAOYSA-N-P21
     RDKit          3D

 15 15  0  0  0  0  0  0  0  0999 V2000
   23.2258    7.7662   22.7572 C   0  0  0  0  0  0  0  0  0  0  0  0
   22.5434    7.5085   24.1079 C   0  0  0  0  0  0  0  0  0  0  0  0
   21.2025    6.7780   23.8976 C   0  0  0  0  0  0  0  0  0  0  0  0
   22.2032    8.7448   24.8525 N   0  0  0  0  0  0  0  0  0  0  0  0
   21.6295   10.1505   24.1776 S   0  0  0  0  0  0  0  0  0  0  0  0
   23.1385   10.9461   23.7459 C   0  0  0  0  0  0  0  0  0  0  0  0
   21.0272   10.8832   25.2718 O   0  0  0  0  0  0  0  0  0  0  0  0
   20.9168    9.9080   22.9483 O   0  0  0  0  0  0  0  0  0  0  0  0
   23.5680    6.7238   24.9582 C   0  0  0  0  0  0  0  0  0  0  0  0
   23.5821    5.3236   25.0172 C   0  0  0  0  0  0  0  0  0  0  0  0
   24.5250    4.6226   25.7777 C   0  0  0  0  0  0  0  0  0  0  0  0
   25.5020    5.3137   26.4805 C   0  0  0  0  0  0  0  0  0  0  0  0
   25.5323    6.6968   26.4015 C   0  0  0  0  0  0  0  0  0  0  0  0
   26.4705    7.3710   27.0808 F   0  0  0  0  0  0  0  0  0  0  0  0
   24.5871    7.4006   25.6558 C   0  0  0  0  0  0  0  0  0  0  0  0
  1  2  1  0
  2  3  1  0
  2  4  1  0
  4  5  1  0
  5  6  1  0
  5  7  2  0
  5  8  2  0
  2  9  1  0
  9 10  2  0
 10 11  1  0
 11 12  2  0
 12 13  1  0
 13 14  1  0
 13 15  2  0
 15  9  1  0
M  END
>  <placement_batch>  (56) 
CpKRS_FrAncestor_bulkdock_iter2_cluster_best5

>  <name>  (56) 
DKOJAWPGRUQDBI-UHFFFAOYSA-N-P21

>  <HIPPO Pose ID>  (56) 
54942

>  <inchikey>  (56) 
DKOJAWPGRUQDBI-UHFFFAOYSA-N

>  <inspiration_score>  (56) 
0.708

>  <tags>  (56) 
CpKRS_FrAncestor_bulkdock_iter2,CpKRS_FrAncestor_bulkdock_iter2_cluster_best5,BulkDock Fragalysis export,fragmenstein_placed,CpKRS_FrAncestor_bulkdock_iter2_exported

>  <distance_score>  (56) 
0.440187

>  <ref_pdb>  (56) 
x0602b

>  <alias>  (56) 
DKOJAWPGRUQDBI-UHFFFAOYSA-N-P21

>  <subsites>  (56) 


>  <smiles>  (56) 
CC(C)(NS(C)(=O)=O)c1cccc(F)c1

>  <HIPPO Compound ID>  (56) 
311580

>  <ref_mols>  (56) 
x0472a

>  <energy_score>  (56) 
-48.781607

$$$$
INLPHABCTMPZGH-UHFFFAOYSA-N-P27
     RDKit          3D

 16 16  0  0  0  0  0  0  0  0999 V2000
   16.8259   27.4136   26.3621 C   0  0  0  0  0  0  0  0  0  0  0  0
   15.3300   27.5795   26.1075 C   0  0  0  0  0  0  0  0  0  0  0  0
   14.7173   26.3162   25.5108 C   0  0  0  0  0  0  0  0  0  0  0  0
   13.6495   25.7009   26.2952 N   0  0  0  0  0  0  0  0  0  0  0  0
   13.3915   24.0469   26.0366 S   0  0  0  0  0  0  0  0  0  0  0  0
   12.4466   23.6148   27.0321 O   0  0  0  0  0  0  0  0  0  0  0  0
   13.1592   23.8549   24.6235 O   0  0  0  0  0  0  0  0  0  0  0  0
   14.9717   23.3205   26.4120 C   0  0  0  0  0  0  0  0  0  0  0  0
   15.3029   22.0944   25.8443 C   0  0  0  0  0  0  0  0  0  0  0  0
   16.5729   21.5574   26.0769 C   0  0  0  0  0  0  0  0  0  0  0  0
   17.5159   22.2332   26.8740 C   0  0  0  0  0  0  0  0  0  0  0  0
   18.8414   21.5864   27.2070 C   0  0  0  0  0  0  0  0  0  0  0  0
   19.9915   22.1605   26.5073 C   0  0  0  0  0  0  0  0  0  0  0  0
   20.9377   22.6060   26.0034 N   0  0  0  0  0  0  0  0  0  0  0  0
   17.1761   23.4736   27.4207 C   0  0  0  0  0  0  0  0  0  0  0  0
   15.9045   24.0012   27.2050 C   0  0  0  0  0  0  0  0  0  0  0  0
  1  2  1  0
  2  3  1  0
  3  4  1  0
  4  5  1  0
  5  6  2  0
  5  7  2  0
  5  8  1  0
  8  9  2  0
  9 10  1  0
 10 11  2  0
 11 12  1  0
 12 13  1  0
 13 14  3  0
 11 15  1  0
 15 16  2  0
 16  8  1  0
M  END
>  <placement_batch>  (57) 
CpKRS_FrAncestor_bulkdock_iter2_cluster_best5

>  <name>  (57) 
INLPHABCTMPZGH-UHFFFAOYSA-N-P27

>  <HIPPO Pose ID>  (57) 
54946

>  <inchikey>  (57) 
INLPHABCTMPZGH-UHFFFAOYSA-N

>  <inspiration_score>  (57) 
0.565

>  <tags>  (57) 
CpKRS_FrAncestor_bulkdock_iter2,CpKRS_FrAncestor_bulkdock_iter2_cluster_best5,BulkDock Fragalysis export,fragmenstein_placed,CpKRS_FrAncestor_bulkdock_iter2_exported

>  <distance_score>  (57) 
0.828258

>  <ref_pdb>  (57) 
x0602b

>  <alias>  (57) 
INLPHABCTMPZGH-UHFFFAOYSA-N-P27

>  <subsites>  (57) 


>  <smiles>  (57) 
CCCNS(=O)(=O)c1ccc(CC#N)cc1

>  <HIPPO Compound ID>  (57) 
450609

>  <ref_mols>  (57) 
x0483a

>  <energy_score>  (57) 
-14.648886

$$$$
RJPNSJNRRHJCOW-UHFFFAOYSA-N-P31
     RDKit          3D

 18 18  0  0  0  0  0  0  0  0999 V2000
    1.6867   10.8502   42.3229 C   0  0  0  0  0  0  0  0  0  0  0  0
    1.5739   10.6492   40.8070 C   0  0  0  0  0  0  0  0  0  0  0  0
    0.6415    9.4813   40.4297 C   0  0  0  0  0  0  0  0  0  0  0  0
    1.0040   11.8678   40.1684 N   0  0  0  0  0  0  0  0  0  0  0  0
   -0.2884   12.7304   40.7840 S   0  0  0  0  0  0  0  0  0  0  0  0
    0.5111   14.1250   41.5422 C   0  0  0  0  0  0  0  0  0  0  0  0
   -0.9720   13.2168   39.6057 O   0  0  0  0  0  0  0  0  0  0  0  0
   -0.9737   11.9469   41.7862 O   0  0  0  0  0  0  0  0  0  0  0  0
    2.9582   10.3092   40.2085 C   0  0  0  0  0  0  0  0  0  0  0  0
    3.4250   10.9185   39.0351 C   0  0  0  0  0  0  0  0  0  0  0  0
    4.6015   10.4858   38.4218 C   0  0  0  0  0  0  0  0  0  0  0  0
    5.3771    9.4669   38.9807 C   0  0  0  0  0  0  0  0  0  0  0  0
    6.6134    8.9627   38.2825 C   0  0  0  0  0  0  0  0  0  0  0  0
    6.5835    7.6079   38.1344 F   0  0  0  0  0  0  0  0  0  0  0  0
    7.7665    9.2425   38.9373 F   0  0  0  0  0  0  0  0  0  0  0  0
    6.7565    9.4602   37.0230 F   0  0  0  0  0  0  0  0  0  0  0  0
    4.9552    8.8839   40.1757 C   0  0  0  0  0  0  0  0  0  0  0  0
    3.7544    9.2841   40.7647 C   0  0  0  0  0  0  0  0  0  0  0  0
  1  2  1  0
  2  3  1  0
  2  4  1  0
  4  5  1  0
  5  6  1  0
  5  7  2  0
  5  8  2  0
  2  9  1  0
  9 10  2  0
 10 11  1  0
 11 12  2  0
 12 13  1  0
 13 14  1  0
 13 15  1  0
 13 16  1  0
 12 17  1  0
 17 18  2  0
 18  9  1  0
M  END
>  <placement_batch>  (58) 
CpKRS_FrAncestor_bulkdock_iter2_cluster_best5

>  <name>  (58) 
RJPNSJNRRHJCOW-UHFFFAOYSA-N-P31

>  <HIPPO Pose ID>  (58) 
54948

>  <inchikey>  (58) 
RJPNSJNRRHJCOW-UHFFFAOYSA-N

>  <inspiration_score>  (58) 
0.656

>  <tags>  (58) 
CpKRS_FrAncestor_bulkdock_iter2,CpKRS_FrAncestor_bulkdock_iter2_cluster_best5,BulkDock Fragalysis export,fragmenstein_placed,CpKRS_FrAncestor_bulkdock_iter2_exported

>  <distance_score>  (58) 
0.526076

>  <ref_pdb>  (58) 
x0602b

>  <alias>  (58) 
RJPNSJNRRHJCOW-UHFFFAOYSA-N-P31

>  <subsites>  (58) 


>  <smiles>  (58) 
CC(C)(NS(C)(=O)=O)c1ccc(C(F)(F)F)cc1

>  <HIPPO Compound ID>  (58) 
450610

>  <ref_mols>  (58) 
x0487b

>  <energy_score>  (58) 
-60.784843

$$$$
UTEGCAJQJAYZTM-UHFFFAOYSA-N-P54
     RDKit          3D

 16 16  0  0  0  0  0  0  0  0999 V2000
    7.2067  -40.4514    7.3484 C   0  0  0  0  0  0  0  0  0  0  0  0
    7.7123  -39.1250    7.8919 C   0  0  0  0  0  0  0  0  0  0  0  0
    6.6216  -38.0596    7.8656 C   0  0  0  0  0  0  0  0  0  0  0  0
    7.1409  -36.7828    8.3617 N   0  0  0  0  0  0  0  0  0  0  0  0
    6.6422  -36.1885    9.8381 S   0  0  0  0  0  0  0  0  0  0  0  0
    5.1996  -36.2739    9.9095 O   0  0  0  0  0  0  0  0  0  0  0  0
    7.3155  -34.9329   10.1014 O   0  0  0  0  0  0  0  0  0  0  0  0
    7.3108  -37.3517   11.0045 C   0  0  0  0  0  0  0  0  0  0  0  0
    6.4306  -38.1794   11.7132 C   0  0  0  0  0  0  0  0  0  0  0  0
    6.9113  -38.9596   12.7650 C   0  0  0  0  0  0  0  0  0  0  0  0
    8.2601  -38.9057   13.1187 C   0  0  0  0  0  0  0  0  0  0  0  0
    9.1430  -38.0877   12.4129 C   0  0  0  0  0  0  0  0  0  0  0  0
    8.6683  -37.3150   11.3496 C   0  0  0  0  0  0  0  0  0  0  0  0
    9.6077  -36.5159   10.6139 N   0  0  0  0  0  0  0  0  0  0  0  0
    9.6398  -36.5827    9.1961 O   0  0  0  0  0  0  0  0  0  0  0  0
   10.6278  -35.7991   11.2724 O   0  0  0  0  0  0  0  0  0  0  0  0
  1  2  1  0
  2  3  1  0
  3  4  1  0
  4  5  1  0
  5  6  2  0
  5  7  2  0
  5  8  1  0
  8  9  2  0
  9 10  1  0
 10 11  2  0
 11 12  1  0
 12 13  2  0
 13 14  1  0
 14 15  2  0
 14 16  1  0
 13  8  1  0
M  CHG  1  14   1
M  END
>  <placement_batch>  (59) 
CpKRS_FrAncestor_bulkdock_iter2_cluster_best5

>  <name>  (59) 
UTEGCAJQJAYZTM-UHFFFAOYSA-N-P54

>  <HIPPO Pose ID>  (59) 
55055

>  <inchikey>  (59) 
UTEGCAJQJAYZTM-UHFFFAOYSA-N

>  <inspiration_score>  (59) 
0.848

>  <tags>  (59) 
CpKRS_FrAncestor_bulkdock_iter2,CpKRS_FrAncestor_bulkdock_iter2_cluster_best5,BulkDock Fragalysis export,fragmenstein_placed,CpKRS_FrAncestor_bulkdock_iter2_exported

>  <distance_score>  (59) 
0.219728

>  <ref_pdb>  (59) 
x0602b

>  <alias>  (59) 
UTEGCAJQJAYZTM-UHFFFAOYSA-N-P54

>  <subsites>  (59) 


>  <smiles>  (59) 
CCCNS(=O)(=O)c1ccccc1[N+](=O)O

>  <HIPPO Compound ID>  (59) 
450643

>  <ref_mols>  (59) 
x0639c

>  <energy_score>  (59) 
-75.68325

$$$$
KPRSBCKKEWIBCN-UHFFFAOYSA-N-P54
     RDKit          3D

 15 15  0  0  0  0  0  0  0  0999 V2000
    8.2049  -38.9039    5.8924 C   0  0  0  0  0  0  0  0  0  0  0  0
    7.4749  -38.4610    6.7373 C   0  0  0  0  0  0  0  0  0  0  0  0
    6.5860  -37.9173    7.7712 C   0  0  0  0  0  0  0  0  0  0  0  0
    7.2357  -36.7762    8.3940 N   0  0  0  0  0  0  0  0  0  0  0  0
    6.5944  -36.1961    9.8185 S   0  0  0  0  0  0  0  0  0  0  0  0
    5.1563  -36.2916    9.7141 O   0  0  0  0  0  0  0  0  0  0  0  0
    7.2091  -34.9109   10.0830 O   0  0  0  0  0  0  0  0  0  0  0  0
    7.2314  -37.3513   11.0439 C   0  0  0  0  0  0  0  0  0  0  0  0
    8.6174  -37.3166   11.3566 C   0  0  0  0  0  0  0  0  0  0  0  0
    9.6194  -36.4178   10.6792 C   0  0  0  0  0  0  0  0  0  0  0  0
    9.0960  -38.1194   12.4050 C   0  0  0  0  0  0  0  0  0  0  0  0
    8.2419  -38.9503   13.1183 C   0  0  0  0  0  0  0  0  0  0  0  0
    6.8919  -39.0011   12.7945 C   0  0  0  0  0  0  0  0  0  0  0  0
    6.3605  -38.2129   11.7587 C   0  0  0  0  0  0  0  0  0  0  0  0
    4.8806  -38.3295   11.5174 C   0  0  0  0  0  0  0  0  0  0  0  0
  1  2  3  0
  2  3  1  0
  3  4  1  0
  4  5  1  0
  5  6  2  0
  5  7  2  0
  5  8  1  0
  8  9  2  0
  9 10  1  0
  9 11  1  0
 11 12  2  0
 12 13  1  0
 13 14  2  0
 14 15  1  0
 14  8  1  0
M  END
>  <placement_batch>  (60) 
CpKRS_FrAncestor_bulkdock_iter2_cluster_best5

>  <name>  (60) 
KPRSBCKKEWIBCN-UHFFFAOYSA-N-P54

>  <HIPPO Pose ID>  (60) 
55121

>  <inchikey>  (60) 
KPRSBCKKEWIBCN-UHFFFAOYSA-N

>  <inspiration_score>  (60) 
0.854

>  <tags>  (60) 
CpKRS_FrAncestor_bulkdock_iter2,CpKRS_FrAncestor_bulkdock_iter2_cluster_best5,BulkDock Fragalysis export,fragmenstein_placed,CpKRS_FrAncestor_bulkdock_iter2_exported

>  <distance_score>  (60) 
0.215321

>  <ref_pdb>  (60) 
x0602b

>  <alias>  (60) 
KPRSBCKKEWIBCN-UHFFFAOYSA-N-P54

>  <subsites>  (60) 


>  <smiles>  (60) 
C#CCNS(=O)(=O)c1c(C)cccc1C

>  <HIPPO Compound ID>  (60) 
311512

>  <ref_mols>  (60) 
x0639c

>  <energy_score>  (60) 
-291.74499

$$$$
ZLIJDMJCDVSOAB-UHFFFAOYSA-N-P54
     RDKit          3D

 15 15  0  0  0  0  0  0  0  0999 V2000
    6.8000  -42.8970   16.6122 C   0  0  0  0  0  0  0  0  0  0  0  0
    7.8239  -42.3818   15.6107 C   0  0  0  0  0  0  0  0  0  0  0  0
    7.1853  -41.7013   14.4005 C   0  0  0  0  0  0  0  0  0  0  0  0
    6.4641  -40.4950   14.8219 N   0  0  0  0  0  0  0  0  0  0  0  0
    5.5990  -39.6198   13.6787 S   0  0  0  0  0  0  0  0  0  0  0  0
    4.9638  -40.5858   12.8094 O   0  0  0  0  0  0  0  0  0  0  0  0
    4.8467  -38.6113   14.3951 O   0  0  0  0  0  0  0  0  0  0  0  0
    6.7985  -38.7319   12.7128 C   0  0  0  0  0  0  0  0  0  0  0  0
    8.1227  -38.6216   13.1620 C   0  0  0  0  0  0  0  0  0  0  0  0
    9.0515  -37.8613   12.4477 C   0  0  0  0  0  0  0  0  0  0  0  0
    8.6616  -37.2114   11.2831 C   0  0  0  0  0  0  0  0  0  0  0  0
    9.7829  -36.2155   10.4429 Cl  0  0  0  0  0  0  0  0  0  0  0  0
    7.3540  -37.3240   10.8176 C   0  0  0  0  0  0  0  0  0  0  0  0
    6.4120  -38.0716   11.5384 C   0  0  0  0  0  0  0  0  0  0  0  0
    4.6368  -38.0311   10.8614 Br  0  0  0  0  0  0  0  0  0  0  0  0
  1  2  1  0
  2  3  1  0
  3  4  1  0
  4  5  1  0
  5  6  2  0
  5  7  2  0
  5  8  1  0
  8  9  2  0
  9 10  1  0
 10 11  2  0
 11 12  1  0
 11 13  1  0
 13 14  2  0
 14 15  1  0
 14  8  1  0
M  END
>  <placement_batch>  (61) 
CpKRS_FrAncestor_bulkdock_iter2_cluster_best5

>  <name>  (61) 
ZLIJDMJCDVSOAB-UHFFFAOYSA-N-P54

>  <HIPPO Pose ID>  (61) 
55163

>  <inchikey>  (61) 
ZLIJDMJCDVSOAB-UHFFFAOYSA-N

>  <inspiration_score>  (61) 
0.489

>  <tags>  (61) 
CpKRS_FrAncestor_bulkdock_iter2,CpKRS_FrAncestor_bulkdock_iter2_cluster_best5,BulkDock Fragalysis export,fragmenstein_placed,CpKRS_FrAncestor_bulkdock_iter2_exported

>  <distance_score>  (61) 
0.39133

>  <ref_pdb>  (61) 
x0602b

>  <alias>  (61) 
ZLIJDMJCDVSOAB-UHFFFAOYSA-N-P54

>  <subsites>  (61) 


>  <smiles>  (61) 
CCCNS(=O)(=O)c1ccc(Cl)cc1Br

>  <HIPPO Compound ID>  (61) 
450667

>  <ref_mols>  (61) 
x0639c

>  <energy_score>  (61) 
-167.170566

$$$$
CESTZZDAAKDBQT-UHFFFAOYSA-N-P52
     RDKit          3D

 15 15  0  0  0  0  0  0  0  0999 V2000
   22.4185    7.9513   21.5528 C   0  0  0  0  0  0  0  0  0  0  0  0
   21.9887    7.3648   22.5096 C   0  0  0  0  0  0  0  0  0  0  0  0
   21.5241    6.6495   23.7065 C   0  0  0  0  0  0  0  0  0  0  0  0
   20.9788    7.5938   24.6698 N   0  0  0  0  0  0  0  0  0  0  0  0
   21.9781    8.3270   25.7759 S   0  0  0  0  0  0  0  0  0  0  0  0
   22.6816    7.2772   26.4836 O   0  0  0  0  0  0  0  0  0  0  0  0
   21.2022    9.3018   26.5088 O   0  0  0  0  0  0  0  0  0  0  0  0
   23.1738    9.1987   24.8014 C   0  0  0  0  0  0  0  0  0  0  0  0
   24.5169    8.7929   24.8779 C   0  0  0  0  0  0  0  0  0  0  0  0
   25.4886    9.4305   24.1076 C   0  0  0  0  0  0  0  0  0  0  0  0
   25.1182   10.4606   23.2513 C   0  0  0  0  0  0  0  0  0  0  0  0
   26.3075   11.2197   22.2696 Cl  0  0  0  0  0  0  0  0  0  0  0  0
   23.7873   10.8650   23.1704 C   0  0  0  0  0  0  0  0  0  0  0  0
   22.8062   10.2456   23.9543 C   0  0  0  0  0  0  0  0  0  0  0  0
   21.1779   10.7879   23.7518 Cl  0  0  0  0  0  0  0  0  0  0  0  0
  1  2  3  0
  2  3  1  0
  3  4  1  0
  4  5  1  0
  5  6  2  0
  5  7  2  0
  5  8  1  0
  8  9  2  0
  9 10  1  0
 10 11  2  0
 11 12  1  0
 11 13  1  0
 13 14  2  0
 14 15  1  0
 14  8  1  0
M  END
>  <placement_batch>  (62) 
CpKRS_FrAncestor_bulkdock_iter2_cluster_best5

>  <name>  (62) 
CESTZZDAAKDBQT-UHFFFAOYSA-N-P52

>  <HIPPO Pose ID>  (62) 
55167

>  <inchikey>  (62) 
CESTZZDAAKDBQT-UHFFFAOYSA-N

>  <inspiration_score>  (62) 
0.941

>  <tags>  (62) 
CpKRS_FrAncestor_bulkdock_iter2,CpKRS_FrAncestor_bulkdock_iter2_cluster_best5,BulkDock Fragalysis export,fragmenstein_placed,CpKRS_FrAncestor_bulkdock_iter2_exported

>  <distance_score>  (62) 
0.27696

>  <ref_pdb>  (62) 
x0602b

>  <alias>  (62) 
CESTZZDAAKDBQT-UHFFFAOYSA-N-P52

>  <subsites>  (62) 


>  <smiles>  (62) 
C#CCNS(=O)(=O)c1ccc(Cl)cc1Cl

>  <HIPPO Compound ID>  (62) 
311453

>  <ref_mols>  (62) 
x0639a

>  <energy_score>  (62) 
-209.752475

$$$$
NIBWMTXNEIKCOP-UHFFFAOYSA-N-P52
     RDKit          3D

 15 15  0  0  0  0  0  0  0  0999 V2000
   28.6716   13.1177   23.3077 C   0  0  0  0  0  0  0  0  0  0  0  0
   29.2916   12.2445   24.3869 C   0  0  0  0  0  0  0  0  0  0  0  0
   28.3986   11.0912   24.8382 C   0  0  0  0  0  0  0  0  0  0  0  0
   28.1471   10.1621   23.7357 N   0  0  0  0  0  0  0  0  0  0  0  0
   27.1795    8.8225   24.0190 S   0  0  0  0  0  0  0  0  0  0  0  0
   27.3966    8.4216   25.3949 O   0  0  0  0  0  0  0  0  0  0  0  0
   27.4093    7.9058   22.9249 O   0  0  0  0  0  0  0  0  0  0  0  0
   25.4940    9.3920   23.8739 C   0  0  0  0  0  0  0  0  0  0  0  0
   24.5840    8.9152   24.8352 C   0  0  0  0  0  0  0  0  0  0  0  0
   23.2404    9.2925   24.7964 C   0  0  0  0  0  0  0  0  0  0  0  0
   22.8031   10.1518   23.7985 C   0  0  0  0  0  0  0  0  0  0  0  0
   21.1541   10.6353   23.7423 Cl  0  0  0  0  0  0  0  0  0  0  0  0
   23.6972   10.6191   22.8365 C   0  0  0  0  0  0  0  0  0  0  0  0
   25.0506   10.2329   22.8406 C   0  0  0  0  0  0  0  0  0  0  0  0
   25.9294   10.7690   21.7472 C   0  0  0  0  0  0  0  0  0  0  0  0
  1  2  1  0
  2  3  1  0
  3  4  1  0
  4  5  1  0
  5  6  2  0
  5  7  2  0
  5  8  1  0
  8  9  2  0
  9 10  1  0
 10 11  2  0
 11 12  1  0
 11 13  1  0
 13 14  2  0
 14 15  1  0
 14  8  1  0
M  END
>  <placement_batch>  (63) 
CpKRS_FrAncestor_bulkdock_iter2_cluster_best5

>  <name>  (63) 
NIBWMTXNEIKCOP-UHFFFAOYSA-N-P52

>  <HIPPO Pose ID>  (63) 
55173

>  <inchikey>  (63) 
NIBWMTXNEIKCOP-UHFFFAOYSA-N

>  <inspiration_score>  (63) 
0.459

>  <tags>  (63) 
CpKRS_FrAncestor_bulkdock_iter2,CpKRS_FrAncestor_bulkdock_iter2_cluster_best5,BulkDock Fragalysis export,fragmenstein_placed,CpKRS_FrAncestor_bulkdock_iter2_exported

>  <distance_score>  (63) 
0.464195

>  <ref_pdb>  (63) 
x0602b

>  <alias>  (63) 
NIBWMTXNEIKCOP-UHFFFAOYSA-N-P52

>  <subsites>  (63) 


>  <smiles>  (63) 
CCCNS(=O)(=O)c1ccc(Cl)cc1C

>  <HIPPO Compound ID>  (63) 
450669

>  <ref_mols>  (63) 
x0639a

>  <energy_score>  (63) 
-38.971033

$$$$
MFSMJCXBRIYZJH-UHFFFAOYSA-N-P27
     RDKit          3D

 16 16  0  0  0  0  0  0  0  0999 V2000
   20.6941   20.7564   28.7386 C   0  0  0  0  0  0  0  0  0  0  0  0
   21.4370   20.9280   27.4243 C   0  0  0  0  0  0  0  0  0  0  0  0
   22.9446   20.9303   27.6589 C   0  0  0  0  0  0  0  0  0  0  0  0
   21.0779   22.2008   26.7678 N   0  0  0  0  0  0  0  0  0  0  0  0
   19.5455   22.3462   26.0677 S   0  0  0  0  0  0  0  0  0  0  0  0
   19.0611   21.0151   25.7951 O   0  0  0  0  0  0  0  0  0  0  0  0
   19.7290   23.3247   25.0123 O   0  0  0  0  0  0  0  0  0  0  0  0
   18.5887   23.0919   27.3923 C   0  0  0  0  0  0  0  0  0  0  0  0
   17.1777   23.3330   26.9223 C   0  0  0  0  0  0  0  0  0  0  0  0
   16.6494   24.6283   26.9257 C   0  0  0  0  0  0  0  0  0  0  0  0
   15.3174   24.8508   26.5725 C   0  0  0  0  0  0  0  0  0  0  0  0
   14.4868   23.7850   26.2080 C   0  0  0  0  0  0  0  0  0  0  0  0
   13.0188   23.9949   25.9780 C   0  0  0  0  0  0  0  0  0  0  0  0
   12.7587   24.9328   24.8979 N   0  0  0  0  0  0  0  0  0  0  0  0
   15.0261   22.4985   26.1498 C   0  0  0  0  0  0  0  0  0  0  0  0
   16.3495   22.2725   26.5247 C   0  0  0  0  0  0  0  0  0  0  0  0
  1  2  1  0
  2  3  1  0
  2  4  1  0
  4  5  1  0
  5  6  2  0
  5  7  2  0
  5  8  1  0
  8  9  1  0
  9 10  2  0
 10 11  1  0
 11 12  2  0
 12 13  1  0
 13 14  1  0
 12 15  1  0
 15 16  2  0
 16  9  1  0
M  END
>  <placement_batch>  (64) 
CpKRS_FrAncestor_bulkdock_iter2_cluster_best5

>  <name>  (64) 
MFSMJCXBRIYZJH-UHFFFAOYSA-N-P27

>  <HIPPO Pose ID>  (64) 
55179

>  <inchikey>  (64) 
MFSMJCXBRIYZJH-UHFFFAOYSA-N

>  <inspiration_score>  (64) 
0.605

>  <tags>  (64) 
CpKRS_FrAncestor_bulkdock_iter2,CpKRS_FrAncestor_bulkdock_iter2_cluster_best5,BulkDock Fragalysis export,fragmenstein_placed,CpKRS_FrAncestor_bulkdock_iter2_exported

>  <distance_score>  (64) 
0.591879

>  <ref_pdb>  (64) 
x0602b

>  <alias>  (64) 
MFSMJCXBRIYZJH-UHFFFAOYSA-N-P27

>  <subsites>  (64) 


>  <smiles>  (64) 
CC(C)NS(=O)(=O)Cc1ccc(CN)cc1

>  <HIPPO Compound ID>  (64) 
450671

>  <ref_mols>  (64) 
x0483a

>  <energy_score>  (64) 
-31.799682

$$$$
HUKOIKVVYPAWSG-UHFFFAOYSA-N-P31
     RDKit          3D

 16 16  0  0  0  0  0  0  0  0999 V2000
    1.2970   14.3940   38.9494 C   0  0  0  0  0  0  0  0  0  0  0  0
    1.4070   13.8597   40.3718 C   0  0  0  0  0  0  0  0  0  0  0  0
    0.2577   12.9387   40.7377 C   0  0  0  0  0  0  0  0  0  0  0  0
    0.4101   11.6391   40.0675 N   0  0  0  0  0  0  0  0  0  0  0  0
    1.1811   10.3839   40.8835 S   0  0  0  0  0  0  0  0  0  0  0  0
    0.4633    9.1974   40.4776 O   0  0  0  0  0  0  0  0  0  0  0  0
    1.3409   10.7743   42.2640 O   0  0  0  0  0  0  0  0  0  0  0  0
    2.7881   10.2445   40.1527 C   0  0  0  0  0  0  0  0  0  0  0  0
    3.0216   10.7198   38.8628 C   0  0  0  0  0  0  0  0  0  0  0  0
    4.2592   10.4943   38.2622 C   0  0  0  0  0  0  0  0  0  0  0  0
    5.2616    9.8140   38.9612 C   0  0  0  0  0  0  0  0  0  0  0  0
    6.5385    9.6114   38.3218 N   0  0  0  0  0  0  0  0  0  0  0  0
    6.6222    9.5916   36.9098 O   0  0  0  0  0  0  0  0  0  0  0  0
    7.7160    9.5450   39.0884 O   0  0  0  0  0  0  0  0  0  0  0  0
    5.0416    9.3609   40.2644 C   0  0  0  0  0  0  0  0  0  0  0  0
    3.7950    9.5736   40.8605 C   0  0  0  0  0  0  0  0  0  0  0  0
  1  2  1  0
  2  3  1  0
  3  4  1  0
  4  5  1  0
  5  6  2  0
  5  7  2  0
  5  8  1  0
  8  9  2  0
  9 10  1  0
 10 11  2  0
 11 12  1  0
 12 13  2  0
 12 14  1  0
 11 15  1  0
 15 16  2  0
 16  8  1  0
M  CHG  1  12   1
M  END
>  <placement_batch>  (65) 
CpKRS_FrAncestor_bulkdock_iter2_cluster_best5

>  <name>  (65) 
HUKOIKVVYPAWSG-UHFFFAOYSA-N-P31

>  <HIPPO Pose ID>  (65) 
55181

>  <inchikey>  (65) 
HUKOIKVVYPAWSG-UHFFFAOYSA-N

>  <inspiration_score>  (65) 
0.696

>  <tags>  (65) 
CpKRS_FrAncestor_bulkdock_iter2,CpKRS_FrAncestor_bulkdock_iter2_cluster_best5,BulkDock Fragalysis export,fragmenstein_placed,CpKRS_FrAncestor_bulkdock_iter2_exported

>  <distance_score>  (65) 
0.583339

>  <ref_pdb>  (65) 
x0602b

>  <alias>  (65) 
HUKOIKVVYPAWSG-UHFFFAOYSA-N-P31

>  <subsites>  (65) 


>  <smiles>  (65) 
CCCNS(=O)(=O)c1ccc([N+](=O)O)cc1

>  <HIPPO Compound ID>  (65) 
450672

>  <ref_mols>  (65) 
x0487b

>  <energy_score>  (65) 
-49.992734

$$$$
WYXUETUYERGDAN-UHFFFAOYSA-N-P32
     RDKit          3D

 17 17  0  0  0  0  0  0  0  0999 V2000
    0.0359  -22.9875   12.7936 C   0  0  0  0  0  0  0  0  0  0  0  0
   -0.1255  -23.4597   14.2303 C   0  0  0  0  0  0  0  0  0  0  0  0
    0.8278  -24.5976   14.5565 C   0  0  0  0  0  0  0  0  0  0  0  0
    0.5419  -25.0847   15.9068 N   0  0  0  0  0  0  0  0  0  0  0  0
    1.5853  -26.2253   16.5334 S   0  0  0  0  0  0  0  0  0  0  0  0
    0.7516  -27.1498   17.2675 O   0  0  0  0  0  0  0  0  0  0  0  0
    2.4591  -26.6633   15.4675 O   0  0  0  0  0  0  0  0  0  0  0  0
    2.5389  -25.2810   17.6863 C   0  0  0  0  0  0  0  0  0  0  0  0
    2.4150  -25.5341   19.0531 C   0  0  0  0  0  0  0  0  0  0  0  0
    3.1410  -24.7616   19.9534 C   0  0  0  0  0  0  0  0  0  0  0  0
    3.9775  -23.7388   19.4808 C   0  0  0  0  0  0  0  0  0  0  0  0
    4.9310  -22.8605   20.6786 S   0  0  0  0  0  0  0  0  0  0  0  0
    6.3027  -22.3990   19.8611 N   0  0  0  0  0  0  0  0  0  0  0  0
    4.2345  -21.6612   21.0690 O   0  0  0  0  0  0  0  0  0  0  0  0
    5.3546  -23.8733   21.6146 O   0  0  0  0  0  0  0  0  0  0  0  0
    4.1313  -23.5102   18.1143 C   0  0  0  0  0  0  0  0  0  0  0  0
    3.4062  -24.2886   17.2129 C   0  0  0  0  0  0  0  0  0  0  0  0
  1  2  1  0
  2  3  1  0
  3  4  1  0
  4  5  1  0
  5  6  2  0
  5  7  2  0
  5  8  1  0
  8  9  2  0
  9 10  1  0
 10 11  2  0
 11 12  1  0
 12 13  1  0
 12 14  2  0
 12 15  2  0
 11 16  1  0
 16 17  2  0
 17  8  1  0
M  END
>  <placement_batch>  (66) 
CpKRS_FrAncestor_bulkdock_iter2_cluster_best5

>  <name>  (66) 
WYXUETUYERGDAN-UHFFFAOYSA-N-P32

>  <HIPPO Pose ID>  (66) 
55182

>  <inchikey>  (66) 
WYXUETUYERGDAN-UHFFFAOYSA-N

>  <inspiration_score>  (66) 
0.784

>  <tags>  (66) 
CpKRS_FrAncestor_bulkdock_iter2,CpKRS_FrAncestor_bulkdock_iter2_cluster_best5,BulkDock Fragalysis export,fragmenstein_placed,CpKRS_FrAncestor_bulkdock_iter2_exported

>  <distance_score>  (66) 
0.743413

>  <ref_pdb>  (66) 
x0602b

>  <alias>  (66) 
WYXUETUYERGDAN-UHFFFAOYSA-N-P32

>  <subsites>  (66) 


>  <smiles>  (66) 
CCCNS(=O)(=O)c1ccc(S(N)(=O)=O)cc1

>  <HIPPO Compound ID>  (66) 
450673

>  <ref_mols>  (66) 
x0487a

>  <energy_score>  (66) 
-50.614263

$$$$
QMGMVXNIVPWWPJ-UHFFFAOYSA-N-P54
     RDKit          3D

 15 15  0  0  0  0  0  0  0  0999 V2000
    7.9990  -38.4548    5.5487 C   0  0  0  0  0  0  0  0  0  0  0  0
    7.4909  -38.2835    6.6236 C   0  0  0  0  0  0  0  0  0  0  0  0
    6.8731  -38.0691    7.9374 C   0  0  0  0  0  0  0  0  0  0  0  0
    7.2490  -36.7533    8.4281 N   0  0  0  0  0  0  0  0  0  0  0  0
    6.5841  -36.2140    9.8593 S   0  0  0  0  0  0  0  0  0  0  0  0
    7.1509  -34.9132   10.1522 O   0  0  0  0  0  0  0  0  0  0  0  0
    5.1534  -36.3528    9.7292 O   0  0  0  0  0  0  0  0  0  0  0  0
    7.2216  -37.3384   11.0790 C   0  0  0  0  0  0  0  0  0  0  0  0
    8.6059  -37.3285   11.3424 C   0  0  0  0  0  0  0  0  0  0  0  0
    9.7640  -36.3906   10.4575 Cl  0  0  0  0  0  0  0  0  0  0  0  0
    9.1393  -38.1148   12.3708 C   0  0  0  0  0  0  0  0  0  0  0  0
    8.3106  -38.9121   13.1476 C   0  0  0  0  0  0  0  0  0  0  0  0
    6.9451  -38.9327   12.8916 C   0  0  0  0  0  0  0  0  0  0  0  0
    6.3909  -38.1506   11.8666 C   0  0  0  0  0  0  0  0  0  0  0  0
    4.6770  -38.2887   11.7203 Cl  0  0  0  0  0  0  0  0  0  0  0  0
  1  2  3  0
  2  3  1  0
  3  4  1  0
  4  5  1  0
  5  6  2  0
  5  7  2  0
  5  8  1  0
  8  9  2  0
  9 10  1  0
  9 11  1  0
 11 12  2  0
 12 13  1  0
 13 14  2  0
 14 15  1  0
 14  8  1  0
M  END
>  <placement_batch>  (67) 
CpKRS_FrAncestor_bulkdock_iter2_cluster_best5

>  <name>  (67) 
QMGMVXNIVPWWPJ-UHFFFAOYSA-N-P54

>  <HIPPO Pose ID>  (67) 
55220

>  <inchikey>  (67) 
QMGMVXNIVPWWPJ-UHFFFAOYSA-N

>  <inspiration_score>  (67) 
0.955

>  <tags>  (67) 
CpKRS_FrAncestor_bulkdock_iter2,CpKRS_FrAncestor_bulkdock_iter2_cluster_best5,BulkDock Fragalysis export,fragmenstein_placed,CpKRS_FrAncestor_bulkdock_iter2_exported

>  <distance_score>  (67) 
0.208749

>  <ref_pdb>  (67) 
x0602b

>  <alias>  (67) 
QMGMVXNIVPWWPJ-UHFFFAOYSA-N-P54

>  <subsites>  (67) 


>  <smiles>  (67) 
C#CCNS(=O)(=O)c1c(Cl)cccc1Cl

>  <HIPPO Compound ID>  (67) 
311506

>  <ref_mols>  (67) 
x0639c

>  <energy_score>  (67) 
-368.670177

$$$$
MZGGIWMWLZNQIX-UHFFFAOYSA-N-P51
     RDKit          3D

 12 12  0  0  0  0  0  0  0  0999 V2000
    5.2073  -11.7010   21.7113 C   0  0  0  0  0  0  0  0  0  0  0  0
    4.7589  -11.0585   22.9962 C   0  0  0  0  0  0  0  0  0  0  0  0
    3.8407  -11.9832   23.7721 C   0  0  0  0  0  0  0  0  0  0  0  0
    4.5407  -13.1760   24.1060 O   0  0  0  0  0  0  0  0  0  0  0  0
    3.9737  -13.8662   25.1430 C   0  0  0  0  0  0  0  0  0  0  0  0
    2.6134  -13.8333   25.4359 C   0  0  0  0  0  0  0  0  0  0  0  0
    2.1541  -14.4753   26.5791 C   0  0  0  0  0  0  0  0  0  0  0  0
    3.0588  -15.1421   27.3969 C   0  0  0  0  0  0  0  0  0  0  0  0
    2.6727  -15.8387   28.6619 C   0  0  0  0  0  0  0  0  0  0  0  0
    1.4934  -15.2812   29.3274 N   0  0  0  0  0  0  0  0  0  0  0  0
    4.3849  -15.1824   26.9698 C   0  0  0  0  0  0  0  0  0  0  0  0
    4.8668  -14.5563   25.8763 N   0  0  0  0  0  0  0  0  0  0  0  0
  1  2  1  0
  2  3  1  0
  3  4  1  0
  4  5  1  0
  5  6  2  0
  6  7  1  0
  7  8  2  0
  8  9  1  0
  9 10  1  0
  8 11  1  0
 11 12  2  0
 12  5  1  0
M  END
>  <placement_batch>  (68) 
CpKRS_FrAncestor_bulkdock_iter2_cluster_best5

>  <name>  (68) 
MZGGIWMWLZNQIX-UHFFFAOYSA-N-P51

>  <HIPPO Pose ID>  (68) 
55260

>  <inchikey>  (68) 
MZGGIWMWLZNQIX-UHFFFAOYSA-N

>  <inspiration_score>  (68) 
0.812

>  <tags>  (68) 
CpKRS_FrAncestor_bulkdock_iter2,CpKRS_FrAncestor_bulkdock_iter2_cluster_best5,BulkDock Fragalysis export,fragmenstein_placed,CpKRS_FrAncestor_bulkdock_iter2_exported

>  <distance_score>  (68) 
0.513411

>  <ref_pdb>  (68) 
x0602b

>  <alias>  (68) 
MZGGIWMWLZNQIX-UHFFFAOYSA-N-P51

>  <subsites>  (68) 


>  <smiles>  (68) 
CCCOc1ccc(CN)cn1

>  <HIPPO Compound ID>  (68) 
450692

>  <ref_mols>  (68) 
x0634b

>  <energy_score>  (68) 
-11.617723

$$$$
OOIMOWCIYNEWCF-UHFFFAOYSA-N-P51
     RDKit          3D

 13 13  0  0  0  0  0  0  0  0999 V2000
    5.1797  -11.7857   22.2518 C   0  0  0  0  0  0  0  0  0  0  0  0
    4.5754  -12.0103   23.6338 C   0  0  0  0  0  0  0  0  0  0  0  0
    3.4508  -10.9964   23.8473 C   0  0  0  0  0  0  0  0  0  0  0  0
    4.0897  -13.3492   23.6351 O   0  0  0  0  0  0  0  0  0  0  0  0
    3.7965  -13.8170   24.8920 C   0  0  0  0  0  0  0  0  0  0  0  0
    2.4560  -13.8789   25.2440 C   0  0  0  0  0  0  0  0  0  0  0  0
    2.1089  -14.5228   26.4244 C   0  0  0  0  0  0  0  0  0  0  0  0
    3.1149  -15.0993   27.2016 C   0  0  0  0  0  0  0  0  0  0  0  0
    2.8117  -15.7985   28.4689 C   0  0  0  0  0  0  0  0  0  0  0  0
    3.4416  -16.7329   28.9272 O   0  0  0  0  0  0  0  0  0  0  0  0
    1.7413  -15.2708   29.1051 O   0  0  0  0  0  0  0  0  0  0  0  0
    4.4263  -15.0106   26.7494 C   0  0  0  0  0  0  0  0  0  0  0  0
    4.7996  -14.3565   25.6162 N   0  0  0  0  0  0  0  0  0  0  0  0
  1  2  1  0
  2  3  1  0
  2  4  1  0
  4  5  1  0
  5  6  2  0
  6  7  1  0
  7  8  2  0
  8  9  1  0
  9 10  2  0
  9 11  1  0
  8 12  1  0
 12 13  2  0
 13  5  1  0
M  END
>  <placement_batch>  (69) 
CpKRS_FrAncestor_bulkdock_iter2_cluster_best5

>  <name>  (69) 
OOIMOWCIYNEWCF-UHFFFAOYSA-N-P51

>  <HIPPO Pose ID>  (69) 
55329

>  <inchikey>  (69) 
OOIMOWCIYNEWCF-UHFFFAOYSA-N

>  <inspiration_score>  (69) 
0.838

>  <tags>  (69) 
CpKRS_FrAncestor_bulkdock_iter2,CpKRS_FrAncestor_bulkdock_iter2_cluster_best5,BulkDock Fragalysis export,fragmenstein_placed,CpKRS_FrAncestor_bulkdock_iter2_exported

>  <distance_score>  (69) 
0.527644

>  <ref_pdb>  (69) 
x0602b

>  <alias>  (69) 
OOIMOWCIYNEWCF-UHFFFAOYSA-N-P51

>  <subsites>  (69) 


>  <smiles>  (69) 
CC(C)Oc1ccc(C(=O)O)cn1

>  <HIPPO Compound ID>  (69) 
450700

>  <ref_mols>  (69) 
x0634b

>  <energy_score>  (69) 
-13.518972

$$$$
LVTJUYBHZPUHMF-UHFFFAOYSA-N-P51
     RDKit          3D

 13 13  0  0  0  0  0  0  0  0999 V2000
    3.1365  -11.9979   22.4293 C   0  0  0  0  0  0  0  0  0  0  0  0
    3.9727  -12.0399   23.6853 C   0  0  0  0  0  0  0  0  0  0  0  0
    5.2375  -11.2460   23.3960 C   0  0  0  0  0  0  0  0  0  0  0  0
    4.3203  -13.3909   23.9507 O   0  0  0  0  0  0  0  0  0  0  0  0
    3.8290  -13.9134   25.1139 C   0  0  0  0  0  0  0  0  0  0  0  0
    4.7978  -14.5553   25.8132 N   0  0  0  0  0  0  0  0  0  0  0  0
    4.4286  -15.1762   26.9537 C   0  0  0  0  0  0  0  0  0  0  0  0
    3.1415  -15.1727   27.4756 C   0  0  0  0  0  0  0  0  0  0  0  0
    2.8365  -15.8846   28.7520 C   0  0  0  0  0  0  0  0  0  0  0  0
    1.6187  -15.4373   29.3449 O   0  0  0  0  0  0  0  0  0  0  0  0
    2.1639  -14.5220   26.7345 C   0  0  0  0  0  0  0  0  0  0  0  0
    2.4932  -13.8887   25.5375 C   0  0  0  0  0  0  0  0  0  0  0  0
    1.1559  -13.1784   24.7103 Cl  0  0  0  0  0  0  0  0  0  0  0  0
  1  2  1  0
  2  3  1  0
  2  4  1  0
  4  5  1  0
  5  6  2  0
  6  7  1  0
  7  8  2  0
  8  9  1  0
  9 10  1  0
  8 11  1  0
 11 12  2  0
 12 13  1  0
 12  5  1  0
M  END
>  <placement_batch>  (70) 
CpKRS_FrAncestor_bulkdock_iter2_cluster_best5

>  <name>  (70) 
LVTJUYBHZPUHMF-UHFFFAOYSA-N-P51

>  <HIPPO Pose ID>  (70) 
55403

>  <inchikey>  (70) 
LVTJUYBHZPUHMF-UHFFFAOYSA-N

>  <inspiration_score>  (70) 
0.772

>  <tags>  (70) 
CpKRS_FrAncestor_bulkdock_iter2,CpKRS_FrAncestor_bulkdock_iter2_cluster_best5,BulkDock Fragalysis export,fragmenstein_placed,CpKRS_FrAncestor_bulkdock_iter2_exported

>  <distance_score>  (70) 
0.592677

>  <ref_pdb>  (70) 
x0602b

>  <alias>  (70) 
LVTJUYBHZPUHMF-UHFFFAOYSA-N-P51

>  <subsites>  (70) 


>  <smiles>  (70) 
CC(C)Oc1ncc(CO)cc1Cl

>  <HIPPO Compound ID>  (70) 
450710

>  <ref_mols>  (70) 
x0634b

>  <energy_score>  (70) 
-26.912404

$$$$
PZDIVDDFLGKWID-UHFFFAOYSA-N-P51
     RDKit          3D

 14 14  0  0  0  0  0  0  0  0999 V2000
    3.6682  -10.9769   24.0387 C   0  0  0  0  0  0  0  0  0  0  0  0
    3.9428  -12.2982   23.3218 C   0  0  0  0  0  0  0  0  0  0  0  0
    4.9611  -12.0123   22.2177 C   0  0  0  0  0  0  0  0  0  0  0  0
    4.5427  -13.2690   24.1706 O   0  0  0  0  0  0  0  0  0  0  0  0
    3.8922  -13.9025   25.1811 C   0  0  0  0  0  0  0  0  0  0  0  0
    4.7967  -14.5935   25.9306 N   0  0  0  0  0  0  0  0  0  0  0  0
    4.3662  -15.2227   27.0522 C   0  0  0  0  0  0  0  0  0  0  0  0
    3.0657  -15.1712   27.5135 C   0  0  0  0  0  0  0  0  0  0  0  0
    2.7535  -15.7390   28.8393 C   0  0  0  0  0  0  0  0  0  0  0  0
    3.3632  -16.6315   29.3984 O   0  0  0  0  0  0  0  0  0  0  0  0
    1.7428  -15.0928   29.4575 O   0  0  0  0  0  0  0  0  0  0  0  0
    2.1328  -14.5125   26.7229 C   0  0  0  0  0  0  0  0  0  0  0  0
    2.5336  -13.8945   25.5253 C   0  0  0  0  0  0  0  0  0  0  0  0
    1.2352  -13.2160   24.6058 Cl  0  0  0  0  0  0  0  0  0  0  0  0
  1  2  1  0
  2  3  1  0
  2  4  1  0
  4  5  1  0
  5  6  2  0
  6  7  1  0
  7  8  2  0
  8  9  1  0
  9 10  2  0
  9 11  1  0
  8 12  1  0
 12 13  2  0
 13 14  1  0
 13  5  1  0
M  END
>  <placement_batch>  (71) 
CpKRS_FrAncestor_bulkdock_iter2_cluster_best5

>  <name>  (71) 
PZDIVDDFLGKWID-UHFFFAOYSA-N-P51

>  <HIPPO Pose ID>  (71) 
55405

>  <inchikey>  (71) 
PZDIVDDFLGKWID-UHFFFAOYSA-N

>  <inspiration_score>  (71) 
0.862

>  <tags>  (71) 
CpKRS_FrAncestor_bulkdock_iter2,CpKRS_FrAncestor_bulkdock_iter2_cluster_best5,BulkDock Fragalysis export,fragmenstein_placed,CpKRS_FrAncestor_bulkdock_iter2_exported

>  <distance_score>  (71) 
0.453956

>  <ref_pdb>  (71) 
x0602b

>  <alias>  (71) 
PZDIVDDFLGKWID-UHFFFAOYSA-N-P51

>  <subsites>  (71) 


>  <smiles>  (71) 
CC(C)Oc1ncc(C(=O)O)cc1Cl

>  <HIPPO Compound ID>  (71) 
450711

>  <ref_mols>  (71) 
x0634b

>  <energy_score>  (71) 
-29.574655

$$$$
UFSZYMSAYRFRHJ-UHFFFAOYSA-O-P32
     RDKit          3D

 19 19  0  0  0  0  0  0  0  0999 V2000
   -0.7532  -22.2504   12.0576 C   0  0  0  0  0  0  0  0  0  0  0  0
    0.3074  -23.2871   12.3882 C   0  0  0  0  0  0  0  0  0  0  0  0
    0.0961  -24.5144   11.4991 C   0  0  0  0  0  0  0  0  0  0  0  0
    0.1599  -23.6247   13.7807 O   0  0  0  0  0  0  0  0  0  0  0  0
    1.1608  -24.3899   14.3090 C   0  0  0  0  0  0  0  0  0  0  0  0
    2.1359  -24.6433   13.7231 O   0  0  0  0  0  0  0  0  0  0  0  0
    0.6710  -24.8716   15.6870 N   0  0  0  0  0  0  0  0  0  0  0  0
    1.3052  -25.9670   16.7117 S   0  0  0  0  0  0  0  0  0  0  0  0
    0.2097  -26.4102   17.5474 O   0  0  0  0  0  0  0  0  0  0  0  0
    2.0555  -26.9043   15.9071 O   0  0  0  0  0  0  0  0  0  0  0  0
    2.4627  -25.0975   17.7398 C   0  0  0  0  0  0  0  0  0  0  0  0
    3.4231  -24.2666   17.1608 C   0  0  0  0  0  0  0  0  0  0  0  0
    4.2584  -23.4999   17.9779 C   0  0  0  0  0  0  0  0  0  0  0  0
    4.1384  -23.5780   19.3694 C   0  0  0  0  0  0  0  0  0  0  0  0
    4.8880  -22.6683   20.1999 N   0  0  0  0  0  0  0  0  0  0  0  0
    4.3468  -22.1942   21.4149 O   0  0  0  0  0  0  0  0  0  0  0  0
    6.1256  -22.1571   19.7788 O   0  0  0  0  0  0  0  0  0  0  0  0
    3.2283  -24.4632   19.9541 C   0  0  0  0  0  0  0  0  0  0  0  0
    2.3867  -25.2246   19.1346 C   0  0  0  0  0  0  0  0  0  0  0  0
  1  2  1  0
  2  3  1  0
  2  4  1  0
  4  5  1  0
  5  6  2  0
  5  7  1  0
  7  8  1  0
  8  9  2  0
  8 10  2  0
  8 11  1  0
 11 12  2  0
 12 13  1  0
 13 14  2  0
 14 15  1  0
 15 16  2  0
 15 17  1  0
 14 18  1  0
 18 19  2  0
 19 11  1  0
M  CHG  1  15   1
M  END
>  <placement_batch>  (72) 
CpKRS_FrAncestor_bulkdock_iter2_cluster_best5

>  <name>  (72) 
UFSZYMSAYRFRHJ-UHFFFAOYSA-O-P32

>  <HIPPO Pose ID>  (72) 
55458

>  <inchikey>  (72) 
UFSZYMSAYRFRHJ-UHFFFAOYSA-O

>  <inspiration_score>  (72) 
0.652

>  <tags>  (72) 
CpKRS_FrAncestor_bulkdock_iter2,CpKRS_FrAncestor_bulkdock_iter2_cluster_best5,BulkDock Fragalysis export,fragmenstein_placed,CpKRS_FrAncestor_bulkdock_iter2_exported

>  <distance_score>  (72) 
0.691865

>  <ref_pdb>  (72) 
x0602b

>  <alias>  (72) 
UFSZYMSAYRFRHJ-UHFFFAOYSA-O-P32

>  <subsites>  (72) 


>  <smiles>  (72) 
CC(C)OC(=O)NS(=O)(=O)c1ccc([N+](=O)O)cc1

>  <HIPPO Compound ID>  (72) 
450723

>  <ref_mols>  (72) 
x0487a

>  <energy_score>  (72) 
-46.892765

$$$$
OCCUYPVUTHBMLV-UHFFFAOYSA-N-P39
     RDKit          3D

 15 15  0  0  0  0  0  0  0  0999 V2000
   -0.0701  -16.5036   22.9713 C   0  0  0  0  0  0  0  0  0  0  0  0
    1.2930  -16.8843   23.5365 C   0  0  0  0  0  0  0  0  0  0  0  0
    1.2127  -18.1866   24.3047 C   0  0  0  0  0  0  0  0  0  0  0  0
    1.6847  -15.8363   24.4398 O   0  0  0  0  0  0  0  0  0  0  0  0
    3.0256  -15.6537   24.5775 C   0  0  0  0  0  0  0  0  0  0  0  0
    3.8429  -16.3185   24.0976 O   0  0  0  0  0  0  0  0  0  0  0  0
    3.1451  -14.3763   25.3820 N   0  0  0  0  0  0  0  0  0  0  0  0
    4.2906  -13.5787   25.6968 C   0  0  0  0  0  0  0  0  0  0  0  0
    4.5395  -12.5838   24.5913 C   0  0  0  0  0  0  0  0  0  0  0  0
    4.5854  -12.9979   23.2526 C   0  0  0  0  0  0  0  0  0  0  0  0
    4.7914  -12.0572   22.2617 C   0  0  0  0  0  0  0  0  0  0  0  0
    4.9679  -10.7462   22.5057 N   0  0  0  0  0  0  0  0  0  0  0  0
    4.9787  -10.3696   23.7984 C   0  0  0  0  0  0  0  0  0  0  0  0
    5.3174   -8.5417   24.1333 Br  0  0  0  0  0  0  0  0  0  0  0  0
    4.7600  -11.2321   24.8655 C   0  0  0  0  0  0  0  0  0  0  0  0
  1  2  1  0
  2  3  1  0
  2  4  1  0
  4  5  1  0
  5  6  2  0
  5  7  1  0
  7  8  1  0
  8  9  1  0
  9 10  2  0
 10 11  1  0
 11 12  2  0
 12 13  1  0
 13 14  1  0
 13 15  2  0
 15  9  1  0
M  END
>  <placement_batch>  (73) 
CpKRS_FrAncestor_bulkdock_iter2_cluster_best5

>  <name>  (73) 
OCCUYPVUTHBMLV-UHFFFAOYSA-N-P39

>  <HIPPO Pose ID>  (73) 
55460

>  <inchikey>  (73) 
OCCUYPVUTHBMLV-UHFFFAOYSA-N

>  <inspiration_score>  (73) 
0.579

>  <tags>  (73) 
CpKRS_FrAncestor_bulkdock_iter2,CpKRS_FrAncestor_bulkdock_iter2_cluster_best5,BulkDock Fragalysis export,fragmenstein_placed,CpKRS_FrAncestor_bulkdock_iter2_exported

>  <distance_score>  (73) 
0.964359

>  <ref_pdb>  (73) 
x0602b

>  <alias>  (73) 
OCCUYPVUTHBMLV-UHFFFAOYSA-N-P39

>  <subsites>  (73) 


>  <smiles>  (73) 
CC(C)OC(=O)NCc1ccnc(Br)c1

>  <HIPPO Compound ID>  (73) 
326139

>  <ref_mols>  (73) 
x0602a

>  <energy_score>  (73) 
-5.339719

$$$$
GECLCEKRULIFPA-UHFFFAOYSA-N-P22
     RDKit          3D

 14 14  0  0  0  0  0  0  0  0999 V2000
   23.0568    7.6624   22.7687 C   0  0  0  0  0  0  0  0  0  0  0  0
   23.4542    8.2077   24.1404 C   0  0  1  0  0  0  0  0  0  0  0  0
   22.2447    8.7248   24.9185 C   0  0  0  0  0  0  0  0  0  0  0  0
   21.7172   10.3555   24.4036 S   0  0  0  0  0  0  0  0  0  0  0  0
   20.7288   10.0572   23.0869 N   0  0  0  0  0  0  0  0  0  0  0  0
   22.8305   11.1240   23.9015 O   0  0  0  0  0  0  0  0  0  0  0  0
   20.8332   10.8987   25.4144 O   0  0  0  0  0  0  0  0  0  0  0  0
   24.2061    7.1976   24.9976 C   0  0  0  0  0  0  0  0  0  0  0  0
   25.3685    7.6173   25.6706 C   0  0  0  0  0  0  0  0  0  0  0  0
   26.0606    6.7581   26.5272 C   0  0  0  0  0  0  0  0  0  0  0  0
   25.5991    5.4622   26.7225 C   0  0  0  0  0  0  0  0  0  0  0  0
   24.4578    5.0380   26.0535 C   0  0  0  0  0  0  0  0  0  0  0  0
   24.0181    3.7917   26.2598 F   0  0  0  0  0  0  0  0  0  0  0  0
   23.7581    5.8860   25.1964 C   0  0  0  0  0  0  0  0  0  0  0  0
  2  1  1  6
  2  3  1  0
  3  4  1  0
  4  5  1  0
  4  6  2  0
  4  7  2  0
  2  8  1  0
  8  9  2  0
  9 10  1  0
 10 11  2  0
 11 12  1  0
 12 13  1  0
 12 14  2  0
 14  8  1  0
M  END
>  <placement_batch>  (74) 
CpKRS_FrAncestor_bulkdock_iter2_cluster_best5

>  <name>  (74) 
GECLCEKRULIFPA-UHFFFAOYSA-N-P22

>  <HIPPO Pose ID>  (74) 
55485

>  <inchikey>  (74) 
GECLCEKRULIFPA-UHFFFAOYSA-N

>  <inspiration_score>  (74) 
0.931

>  <tags>  (74) 
CpKRS_FrAncestor_bulkdock_iter2,CpKRS_FrAncestor_bulkdock_iter2_cluster_best5,BulkDock Fragalysis export,fragmenstein_placed,CpKRS_FrAncestor_bulkdock_iter2_exported

>  <distance_score>  (74) 
0.332148

>  <ref_pdb>  (74) 
x0602b

>  <alias>  (74) 
GECLCEKRULIFPA-UHFFFAOYSA-N-P22

>  <subsites>  (74) 


>  <smiles>  (74) 
CC(CS(N)(=O)=O)c1cccc(F)c1

>  <HIPPO Compound ID>  (74) 
450729

>  <ref_mols>  (74) 
x0472b

>  <energy_score>  (74) 
-42.14203

$$$$
GDUBIQAGCVHMOE-UHFFFAOYSA-N-P31
     RDKit          3D

 16 16  0  0  0  0  0  0  0  0999 V2000
    0.9491   13.2609   40.4804 C   0  0  0  0  0  0  0  0  0  0  0  0
    0.2908   11.9331   40.1444 C   0  0  0  0  0  0  0  0  0  0  0  0
   -1.1846   11.9705   40.5458 C   0  0  0  0  0  0  0  0  0  0  0  0
    1.1120   10.5589   40.9289 S   0  0  0  0  0  0  0  0  0  0  0  0
    1.2886   10.8956   42.3272 O   0  0  0  0  0  0  0  0  0  0  0  0
    0.4137    9.3547   40.5215 O   0  0  0  0  0  0  0  0  0  0  0  0
    2.7370   10.3736   40.2261 C   0  0  0  0  0  0  0  0  0  0  0  0
    3.0194   10.8168   38.9335 C   0  0  0  0  0  0  0  0  0  0  0  0
    4.2189   10.4448   38.3296 C   0  0  0  0  0  0  0  0  0  0  0  0
    5.1231    9.6354   39.0221 C   0  0  0  0  0  0  0  0  0  0  0  0
    6.4931    8.9299   38.1465 S   0  0  0  0  0  0  0  0  0  0  0  0
    6.1664    7.2830   38.2879 N   0  0  0  0  0  0  0  0  0  0  0  0
    6.3177    9.2114   36.7403 O   0  0  0  0  0  0  0  0  0  0  0  0
    7.7078    9.2065   38.8614 O   0  0  0  0  0  0  0  0  0  0  0  0
    4.8878    9.2657   40.3486 C   0  0  0  0  0  0  0  0  0  0  0  0
    3.6832    9.6327   40.9499 C   0  0  0  0  0  0  0  0  0  0  0  0
  1  2  1  0
  2  3  1  0
  2  4  1  0
  4  5  2  0
  4  6  2  0
  4  7  1  0
  7  8  2  0
  8  9  1  0
  9 10  2  0
 10 11  1  0
 11 12  1  0
 11 13  2  0
 11 14  2  0
 10 15  1  0
 15 16  2  0
 16  7  1  0
M  END
>  <placement_batch>  (75) 
CpKRS_FrAncestor_bulkdock_iter2_cluster_best5

>  <name>  (75) 
GDUBIQAGCVHMOE-UHFFFAOYSA-N-P31

>  <HIPPO Pose ID>  (75) 
55488

>  <inchikey>  (75) 
GDUBIQAGCVHMOE-UHFFFAOYSA-N

>  <inspiration_score>  (75) 
0.555

>  <tags>  (75) 
CpKRS_FrAncestor_bulkdock_iter2,CpKRS_FrAncestor_bulkdock_iter2_cluster_best5,BulkDock Fragalysis export,fragmenstein_placed,CpKRS_FrAncestor_bulkdock_iter2_exported

>  <distance_score>  (75) 
0.687484

>  <ref_pdb>  (75) 
x0602b

>  <alias>  (75) 
GDUBIQAGCVHMOE-UHFFFAOYSA-N-P31

>  <subsites>  (75) 


>  <smiles>  (75) 
CC(C)S(=O)(=O)c1ccc(S(N)(=O)=O)cc1

>  <HIPPO Compound ID>  (75) 
450730

>  <ref_mols>  (75) 
x0487b

>  <energy_score>  (75) 
-39.852697

$$$$
YFBIKSYLMQKWKT-UHFFFAOYSA-N-P31
     RDKit          3D

 16 16  0  0  0  0  0  0  0  0999 V2000
    0.4234   14.1373   41.6399 C   0  0  0  0  0  0  0  0  0  0  0  0
   -0.2676   13.1300   40.7358 C   0  0  0  0  0  0  0  0  0  0  0  0
    0.7279   12.2373   40.0256 C   0  0  0  0  0  0  0  0  0  0  0  0
    1.2013   10.8040   40.9584 S   0  0  0  0  0  0  0  0  0  0  0  0
    1.5543   11.2268   42.2977 O   0  0  0  0  0  0  0  0  0  0  0  0
    0.2114    9.7754   40.7172 O   0  0  0  0  0  0  0  0  0  0  0  0
    2.7049   10.2516   40.1986 C   0  0  0  0  0  0  0  0  0  0  0  0
    3.0103   10.6091   38.8812 C   0  0  0  0  0  0  0  0  0  0  0  0
    4.2172   10.2108   38.3234 C   0  0  0  0  0  0  0  0  0  0  0  0
    5.0907    9.4418   39.0872 C   0  0  0  0  0  0  0  0  0  0  0  0
    6.6120    8.8951   38.3926 S   0  0  0  0  0  0  0  0  0  0  0  0
    7.6916    9.6548   39.3955 N   0  0  0  0  0  0  0  0  0  0  0  0
    6.7518    9.4831   37.0830 O   0  0  0  0  0  0  0  0  0  0  0  0
    6.6951    7.4737   38.6185 O   0  0  0  0  0  0  0  0  0  0  0  0
    4.7920    9.0783   40.4041 C   0  0  0  0  0  0  0  0  0  0  0  0
    3.5965    9.5007   40.9686 C   0  0  0  0  0  0  0  0  0  0  0  0
  1  2  1  0
  2  3  1  0
  3  4  1  0
  4  5  2  0
  4  6  2  0
  4  7  1  0
  7  8  2  0
  8  9  1  0
  9 10  2  0
 10 11  1  0
 11 12  1  0
 11 13  2  0
 11 14  2  0
 10 15  1  0
 15 16  2  0
 16  7  1  0
M  END
>  <placement_batch>  (76) 
CpKRS_FrAncestor_bulkdock_iter2_cluster_best5

>  <name>  (76) 
YFBIKSYLMQKWKT-UHFFFAOYSA-N-P31

>  <HIPPO Pose ID>  (76) 
55490

>  <inchikey>  (76) 
YFBIKSYLMQKWKT-UHFFFAOYSA-N

>  <inspiration_score>  (76) 
0.739

>  <tags>  (76) 
CpKRS_FrAncestor_bulkdock_iter2,CpKRS_FrAncestor_bulkdock_iter2_cluster_best5,BulkDock Fragalysis export,fragmenstein_placed,CpKRS_FrAncestor_bulkdock_iter2_exported

>  <distance_score>  (76) 
0.632818

>  <ref_pdb>  (76) 
x0602b

>  <alias>  (76) 
YFBIKSYLMQKWKT-UHFFFAOYSA-N-P31

>  <subsites>  (76) 


>  <smiles>  (76) 
CCCS(=O)(=O)c1ccc(S(N)(=O)=O)cc1

>  <HIPPO Compound ID>  (76) 
450731

>  <ref_mols>  (76) 
x0487b

>  <energy_score>  (76) 
-42.887245

$$$$
URVMYZCMDMIJIK-UHFFFAOYSA-N-P32
     RDKit          3D

 18 18  0  0  0  0  0  0  0  0999 V2000
   -2.0717  -23.9820   14.9964 C   0  0  0  0  0  0  0  0  0  0  0  0
   -1.2297  -23.7093   13.7604 C   0  0  0  0  0  0  0  0  0  0  0  0
    0.2691  -23.6989   14.0292 C   0  0  0  0  0  0  0  0  0  0  0  0
    0.9868  -25.2935   14.3918 S   0  0  0  0  0  0  0  0  0  0  0  0
    2.3882  -25.2553   14.0266 O   0  0  0  0  0  0  0  0  0  0  0  0
    0.1304  -26.3534   13.9085 O   0  0  0  0  0  0  0  0  0  0  0  0
    0.8883  -25.3224   16.0570 N   0  0  0  0  0  0  0  0  0  0  0  0
    1.8544  -26.1707   16.7484 C   0  0  0  0  0  0  0  0  0  0  0  0
    2.6596  -25.3594   17.7256 C   0  0  0  0  0  0  0  0  0  0  0  0
    3.4321  -24.2719   17.2748 C   0  0  0  0  0  0  0  0  0  0  0  0
    4.1304  -23.4651   18.1703 C   0  0  0  0  0  0  0  0  0  0  0  0
    4.0543  -23.7598   19.5252 C   0  0  0  0  0  0  0  0  0  0  0  0
    4.9331  -22.8389   20.7437 S   0  0  0  0  0  0  0  0  0  0  0  0
    6.3544  -22.3230   20.0369 N   0  0  0  0  0  0  0  0  0  0  0  0
    4.1524  -21.6895   21.1216 O   0  0  0  0  0  0  0  0  0  0  0  0
    5.3525  -23.8547   21.6813 O   0  0  0  0  0  0  0  0  0  0  0  0
    3.3122  -24.8592   19.9858 C   0  0  0  0  0  0  0  0  0  0  0  0
    2.6169  -25.6570   19.0884 C   0  0  0  0  0  0  0  0  0  0  0  0
  1  2  1  0
  2  3  1  0
  3  4  1  0
  4  5  2  0
  4  6  2  0
  4  7  1  0
  7  8  1  0
  8  9  1  0
  9 10  2  0
 10 11  1  0
 11 12  2  0
 12 13  1  0
 13 14  1  0
 13 15  2  0
 13 16  2  0
 12 17  1  0
 17 18  2  0
 18  9  1  0
M  END
>  <placement_batch>  (77) 
CpKRS_FrAncestor_bulkdock_iter2_cluster_best5

>  <name>  (77) 
URVMYZCMDMIJIK-UHFFFAOYSA-N-P32

>  <HIPPO Pose ID>  (77) 
55493

>  <inchikey>  (77) 
URVMYZCMDMIJIK-UHFFFAOYSA-N

>  <inspiration_score>  (77) 
0.908

>  <tags>  (77) 
CpKRS_FrAncestor_bulkdock_iter2,CpKRS_FrAncestor_bulkdock_iter2_cluster_best5,BulkDock Fragalysis export,fragmenstein_placed,CpKRS_FrAncestor_bulkdock_iter2_exported

>  <distance_score>  (77) 
0.451076

>  <ref_pdb>  (77) 
x0602b

>  <alias>  (77) 
URVMYZCMDMIJIK-UHFFFAOYSA-N-P32

>  <subsites>  (77) 


>  <smiles>  (77) 
CCCS(=O)(=O)NCc1ccc(S(N)(=O)=O)cc1

>  <HIPPO Compound ID>  (77) 
450733

>  <ref_mols>  (77) 
x0487a

>  <energy_score>  (77) 
-86.295763

$$$$
JTHKVPHZUWGGEO-UHFFFAOYSA-N-P32
     RDKit          3D

 18 18  0  0  0  0  0  0  0  0999 V2000
   -1.9261  -22.4501   13.9127 C   0  0  0  0  0  0  0  0  0  0  0  0
   -1.3185  -23.8073   14.2300 C   0  0  0  0  0  0  0  0  0  0  0  0
    0.1938  -23.7902   14.0553 C   0  0  0  0  0  0  0  0  0  0  0  0
    0.9647  -25.3498   14.4536 S   0  0  0  0  0  0  0  0  0  0  0  0
    0.1366  -26.4388   13.9839 O   0  0  0  0  0  0  0  0  0  0  0  0
    2.3640  -25.2784   14.0878 O   0  0  0  0  0  0  0  0  0  0  0  0
    0.8524  -25.3485   16.1196 N   0  0  0  0  0  0  0  0  0  0  0  0
    1.8214  -26.1751   16.8346 C   0  0  0  0  0  0  0  0  0  0  0  0
    2.6283  -25.3350   17.7868 C   0  0  0  0  0  0  0  0  0  0  0  0
    2.5178  -25.5199   19.1691 C   0  0  0  0  0  0  0  0  0  0  0  0
    3.2231  -24.6929   20.0351 C   0  0  0  0  0  0  0  0  0  0  0  0
    4.0326  -23.6766   19.5123 C   0  0  0  0  0  0  0  0  0  0  0  0
    4.9667  -22.7042   20.6417 S   0  0  0  0  0  0  0  0  0  0  0  0
    4.1363  -21.6224   21.1229 O   0  0  0  0  0  0  0  0  0  0  0  0
    5.5600  -23.6817   21.5255 O   0  0  0  0  0  0  0  0  0  0  0  0
    6.1629  -22.0326   19.8452 F   0  0  0  0  0  0  0  0  0  0  0  0
    4.1855  -23.4989   18.1432 C   0  0  0  0  0  0  0  0  0  0  0  0
    3.4748  -24.3296   17.2838 C   0  0  0  0  0  0  0  0  0  0  0  0
  1  2  1  0
  2  3  1  0
  3  4  1  0
  4  5  2  0
  4  6  2  0
  4  7  1  0
  7  8  1  0
  8  9  1  0
  9 10  2  0
 10 11  1  0
 11 12  2  0
 12 13  1  0
 13 14  2  0
 13 15  2  0
 13 16  1  0
 12 17  1  0
 17 18  2  0
 18  9  1  0
M  END
>  <placement_batch>  (78) 
CpKRS_FrAncestor_bulkdock_iter2_cluster_best5

>  <name>  (78) 
JTHKVPHZUWGGEO-UHFFFAOYSA-N-P32

>  <HIPPO Pose ID>  (78) 
55499

>  <inchikey>  (78) 
JTHKVPHZUWGGEO-UHFFFAOYSA-N

>  <inspiration_score>  (78) 
0.86

>  <tags>  (78) 
CpKRS_FrAncestor_bulkdock_iter2,CpKRS_FrAncestor_bulkdock_iter2_cluster_best5,BulkDock Fragalysis export,fragmenstein_placed,CpKRS_FrAncestor_bulkdock_iter2_exported

>  <distance_score>  (78) 
0.370303

>  <ref_pdb>  (78) 
x0602b

>  <alias>  (78) 
JTHKVPHZUWGGEO-UHFFFAOYSA-N-P32

>  <subsites>  (78) 


>  <smiles>  (78) 
CCCS(=O)(=O)NCc1ccc(S(=O)(=O)F)cc1

>  <HIPPO Compound ID>  (78) 
450736

>  <ref_mols>  (78) 
x0487a

>  <energy_score>  (78) 
-37.52463

$$$$
IFCXFSOKFSUXNE-UHFFFAOYSA-N-P31
     RDKit          3D

 18 18  0  0  0  0  0  0  0  0999 V2000
   -3.2945    8.5860   40.0906 C   0  0  0  0  0  0  0  0  0  0  0  0
   -3.3161   10.0201   40.5960 C   0  0  0  0  0  0  0  0  0  0  0  0
   -1.9473   10.5424   41.0219 C   0  0  0  0  0  0  0  0  0  0  0  0
   -0.8577   10.8745   39.6365 S   0  0  0  0  0  0  0  0  0  0  0  0
   -0.4039    9.6153   39.0888 O   0  0  0  0  0  0  0  0  0  0  0  0
   -1.4896   11.8707   38.7975 O   0  0  0  0  0  0  0  0  0  0  0  0
    0.4594   11.6107   40.3916 N   0  0  0  0  0  0  0  0  0  0  0  0
    0.3168   12.9795   40.8958 C   0  0  0  0  0  0  0  0  0  0  0  0
    1.4157   10.7600   41.1275 C   0  0  0  0  0  0  0  0  0  0  0  0
    2.7157   10.5115   40.3945 C   0  0  0  0  0  0  0  0  0  0  0  0
    3.7184    9.7483   41.0104 C   0  0  0  0  0  0  0  0  0  0  0  0
    4.8939    9.4251   40.3269 C   0  0  0  0  0  0  0  0  0  0  0  0
    5.0649    9.8238   38.9989 C   0  0  0  0  0  0  0  0  0  0  0  0
    6.4159    9.2306   37.9626 S   0  0  0  0  0  3  0  0  0  0  0  0
    6.2644    7.4708   38.3920 C   0  0  0  0  0  0  0  0  0  0  0  0
    7.5672    9.5567   39.0363 O   0  0  0  0  0  0  0  0  0  0  0  0
    4.0952   10.6202   38.3952 C   0  0  0  0  0  0  0  0  0  0  0  0
    2.9353   10.9671   39.0881 C   0  0  0  0  0  0  0  0  0  0  0  0
  1  2  1  0
  2  3  1  0
  3  4  1  0
  4  5  2  0
  4  6  2  0
  4  7  1  0
  7  8  1  0
  7  9  1  0
  9 10  1  0
 10 11  2  0
 11 12  1  0
 12 13  2  0
 13 14  1  0
 14 15  1  0
 14 16  1  0
 13 17  1  0
 17 18  2  0
 18 10  1  0
M  CHG  1  14  -3
M  END
>  <placement_batch>  (79) 
CpKRS_FrAncestor_bulkdock_iter2_cluster_best5

>  <name>  (79) 
IFCXFSOKFSUXNE-UHFFFAOYSA-N-P31

>  <HIPPO Pose ID>  (79) 
55502

>  <inchikey>  (79) 
IFCXFSOKFSUXNE-UHFFFAOYSA-N

>  <inspiration_score>  (79) 
0.544

>  <tags>  (79) 
CpKRS_FrAncestor_bulkdock_iter2,CpKRS_FrAncestor_bulkdock_iter2_cluster_best5,BulkDock Fragalysis export,fragmenstein_placed,CpKRS_FrAncestor_bulkdock_iter2_exported

>  <distance_score>  (79) 
0.449525

>  <ref_pdb>  (79) 
x0602b

>  <alias>  (79) 
IFCXFSOKFSUXNE-UHFFFAOYSA-N-P31

>  <subsites>  (79) 


>  <smiles>  (79) 
CCCS(=O)(=O)N(C)Cc1ccc([S-3](C)O)cc1

>  <HIPPO Compound ID>  (79) 
450737

>  <ref_mols>  (79) 
x0487b

>  <energy_score>  (79) 
-134.767609

$$$$
VMYNECYFQHABMF-UHFFFAOYSA-N-P33
     RDKit          3D

 16 17  0  0  0  0  0  0  0  0999 V2000
    5.5437   -8.9004   23.7935 C   0  0  0  0  0  0  0  0  0  0  0  0
    4.1856   -9.4699   24.1457 C   0  0  1  0  0  0  0  0  0  0  0  0
    3.2658   -8.4745   24.0510 F   0  0  0  0  0  0  0  0  0  0  0  0
    3.7556  -10.6475   23.2735 C   0  0  0  0  0  0  0  0  0  0  0  0
    4.7092  -11.8407   23.4720 C   0  0  0  0  0  0  0  0  0  0  0  0
    3.9621  -13.1630   23.4668 C   0  0  0  0  0  0  0  0  0  0  0  0
    2.9369  -13.1729   24.5154 N   0  0  0  0  0  0  0  0  0  0  0  0
    3.1895  -13.9612   25.6347 C   0  0  0  0  0  0  0  0  0  0  0  0
    2.1888  -14.1966   26.5949 C   0  0  0  0  0  0  0  0  0  0  0  0
    2.3449  -14.9353   27.7152 N   0  0  0  0  0  0  0  0  0  0  0  0
    3.5696  -15.4816   27.8146 C   0  0  0  0  0  0  0  0  0  0  0  0
    3.9543  -16.4110   29.3775 Br  0  0  0  0  0  0  0  0  0  0  0  0
    4.5735  -15.2942   26.8817 C   0  0  0  0  0  0  0  0  0  0  0  0
    4.4097  -14.5175   25.7953 N   0  0  0  0  0  0  0  0  0  0  0  0
    2.1689  -11.9535   24.7551 C   0  0  0  0  0  0  0  0  0  0  0  0
    2.2907  -11.0257   23.5619 C   0  0  0  0  0  0  0  0  0  0  0  0
  2  1  1  6
  2  3  1  0
  2  4  1  0
  4  5  1  0
  5  6  1  0
  6  7  1  0
  7  8  1  0
  8  9  2  0
  9 10  1  0
 10 11  2  0
 11 12  1  0
 11 13  1  0
 13 14  2  0
  7 15  1  0
 15 16  1  0
 16  4  1  0
 14  8  1  0
M  END
>  <placement_batch>  (80) 
CpKRS_FrAncestor_bulkdock_iter2_cluster_best5

>  <name>  (80) 
VMYNECYFQHABMF-UHFFFAOYSA-N-P33

>  <HIPPO Pose ID>  (80) 
55533

>  <inchikey>  (80) 
VMYNECYFQHABMF-UHFFFAOYSA-N

>  <inspiration_score>  (80) 
0.631

>  <tags>  (80) 
CpKRS_FrAncestor_bulkdock_iter2,CpKRS_FrAncestor_bulkdock_iter2_cluster_best5,BulkDock Fragalysis export,fragmenstein_placed,CpKRS_FrAncestor_bulkdock_iter2_exported

>  <distance_score>  (80) 
0.78384

>  <ref_pdb>  (80) 
x0602b

>  <alias>  (80) 
VMYNECYFQHABMF-UHFFFAOYSA-N-P33

>  <subsites>  (80) 


>  <smiles>  (80) 
CC(F)C1CCN(c2cnc(Br)cn2)CC1

>  <HIPPO Compound ID>  (80) 
133925

>  <ref_mols>  (80) 
x0489a

>  <energy_score>  (80) 
-25.646749

$$$$
PSAWMEISSNHPOR-UHFFFAOYSA-N-P33
     RDKit          3D

 16 17  0  0  0  0  0  0  0  0999 V2000
    5.4364   -8.9311   23.8144 C   0  0  0  0  0  0  0  0  0  0  0  0
    4.0813   -9.5356   24.1248 C   0  0  1  0  0  0  0  0  0  0  0  0
    3.1340   -8.5799   23.9361 F   0  0  0  0  0  0  0  0  0  0  0  0
    3.7344  -10.7634   23.2838 C   0  0  0  0  0  0  0  0  0  0  0  0
    4.7475  -11.8949   23.5322 C   0  0  0  0  0  0  0  0  0  0  0  0
    4.0742  -13.2547   23.5944 C   0  0  0  0  0  0  0  0  0  0  0  0
    3.0581  -13.2600   24.6492 N   0  0  0  0  0  0  0  0  0  0  0  0
    3.2885  -14.0498   25.7669 C   0  0  0  0  0  0  0  0  0  0  0  0
    2.2955  -14.2626   26.7428 C   0  0  0  0  0  0  0  0  0  0  0  0
    2.4416  -15.0165   27.8609 N   0  0  0  0  0  0  0  0  0  0  0  0
    3.6525  -15.5937   27.9402 C   0  0  0  0  0  0  0  0  0  0  0  0
    3.9301  -16.4418   29.3808 Cl  0  0  0  0  0  0  0  0  0  0  0  0
    4.6516  -15.4273   27.0023 C   0  0  0  0  0  0  0  0  0  0  0  0
    4.4944  -14.6431   25.9179 N   0  0  0  0  0  0  0  0  0  0  0  0
    2.1842  -12.1002   24.7881 C   0  0  0  0  0  0  0  0  0  0  0  0
    2.2869  -11.2165   23.5551 C   0  0  0  0  0  0  0  0  0  0  0  0
  2  1  1  6
  2  3  1  0
  2  4  1  0
  4  5  1  0
  5  6  1  0
  6  7  1  0
  7  8  1  0
  8  9  2  0
  9 10  1  0
 10 11  2  0
 11 12  1  0
 11 13  1  0
 13 14  2  0
  7 15  1  0
 15 16  1  0
 16  4  1  0
 14  8  1  0
M  END
>  <placement_batch>  (81) 
CpKRS_FrAncestor_bulkdock_iter2_cluster_best5

>  <name>  (81) 
PSAWMEISSNHPOR-UHFFFAOYSA-N-P33

>  <HIPPO Pose ID>  (81) 
55536

>  <inchikey>  (81) 
PSAWMEISSNHPOR-UHFFFAOYSA-N

>  <inspiration_score>  (81) 
0.683

>  <tags>  (81) 
CpKRS_FrAncestor_bulkdock_iter2,CpKRS_FrAncestor_bulkdock_iter2_cluster_best5,BulkDock Fragalysis export,fragmenstein_placed,CpKRS_FrAncestor_bulkdock_iter2_exported

>  <distance_score>  (81) 
0.592036

>  <ref_pdb>  (81) 
x0602b

>  <alias>  (81) 
PSAWMEISSNHPOR-UHFFFAOYSA-N-P33

>  <subsites>  (81) 


>  <smiles>  (81) 
CC(F)C1CCN(c2cnc(Cl)cn2)CC1

>  <HIPPO Compound ID>  (81) 
133926

>  <ref_mols>  (81) 
x0489a

>  <energy_score>  (81) 
-27.056694

$$$$
XRBPGPBIATZOIO-UHFFFAOYSA-N-P33
     RDKit          3D

 16 17  0  0  0  0  0  0  0  0999 V2000
    5.1752   -8.9134   23.9611 C   0  0  0  0  0  0  0  0  0  0  0  0
    3.9008   -9.7261   24.1173 C   0  0  1  0  0  0  0  0  0  0  0  0
    2.8511   -8.8847   23.9018 F   0  0  0  0  0  0  0  0  0  0  0  0
    3.7859  -10.9164   23.1596 C   0  0  0  0  0  0  0  0  0  0  0  0
    2.4129  -11.5878   23.2879 C   0  0  0  0  0  0  0  0  0  0  0  0
    2.2369  -12.3447   24.6018 C   0  0  0  0  0  0  0  0  0  0  0  0
    3.4358  -13.0907   24.9612 N   0  0  0  0  0  0  0  0  0  0  0  0
    3.4427  -14.0346   25.9877 C   0  0  0  0  0  0  0  0  0  0  0  0
    4.5771  -14.7767   26.0915 N   0  0  0  0  0  0  0  0  0  0  0  0
    4.6472  -15.7153   27.0530 C   0  0  0  0  0  0  0  0  0  0  0  0
    3.6356  -15.9281   27.9599 C   0  0  0  0  0  0  0  0  0  0  0  0
    2.5048  -15.2029   27.9539 N   0  0  0  0  0  0  0  0  0  0  0  0
    2.4339  -14.2692   26.9575 C   0  0  0  0  0  0  0  0  0  0  0  0
    0.9385  -13.4101   27.0905 Cl  0  0  0  0  0  0  0  0  0  0  0  0
    4.4148  -13.2940   23.8889 C   0  0  0  0  0  0  0  0  0  0  0  0
    4.9065  -11.9379   23.3921 C   0  0  0  0  0  0  0  0  0  0  0  0
  2  1  1  6
  2  3  1  0
  2  4  1  0
  4  5  1  0
  5  6  1  0
  6  7  1  0
  7  8  1  0
  8  9  2  0
  9 10  1  0
 10 11  2  0
 11 12  1  0
 12 13  2  0
 13 14  1  0
  7 15  1  0
 15 16  1  0
 16  4  1  0
 13  8  1  0
M  END
>  <placement_batch>  (82) 
CpKRS_FrAncestor_bulkdock_iter2_cluster_best5

>  <name>  (82) 
XRBPGPBIATZOIO-UHFFFAOYSA-N-P33

>  <HIPPO Pose ID>  (82) 
55539

>  <inchikey>  (82) 
XRBPGPBIATZOIO-UHFFFAOYSA-N

>  <inspiration_score>  (82) 
0.692

>  <tags>  (82) 
CpKRS_FrAncestor_bulkdock_iter2,CpKRS_FrAncestor_bulkdock_iter2_cluster_best5,BulkDock Fragalysis export,fragmenstein_placed,CpKRS_FrAncestor_bulkdock_iter2_exported

>  <distance_score>  (82) 
0.561303

>  <ref_pdb>  (82) 
x0602b

>  <alias>  (82) 
XRBPGPBIATZOIO-UHFFFAOYSA-N-P33

>  <subsites>  (82) 


>  <smiles>  (82) 
CC(F)C1CCN(c2nccnc2Cl)CC1

>  <HIPPO Compound ID>  (82) 
133919

>  <ref_mols>  (82) 
x0489a

>  <energy_score>  (82) 
-28.51194

$$$$
IESWSWZCSJNVPR-UHFFFAOYSA-N-P33
     RDKit          3D

 16 17  0  0  0  0  0  0  0  0999 V2000
    5.1225   -8.9331   23.9333 C   0  0  0  0  0  0  0  0  0  0  0  0
    3.8338   -9.7130   24.1361 C   0  0  1  0  0  0  0  0  0  0  0  0
    2.7990   -8.8603   23.8951 F   0  0  0  0  0  0  0  0  0  0  0  0
    3.6808  -10.9399   23.2329 C   0  0  0  0  0  0  0  0  0  0  0  0
    2.3057  -11.6009   23.4411 C   0  0  0  0  0  0  0  0  0  0  0  0
    2.1965  -12.3772   24.7560 C   0  0  0  0  0  0  0  0  0  0  0  0
    3.4120  -13.1373   25.0153 N   0  0  0  0  0  0  0  0  0  0  0  0
    3.4564  -14.0855   26.0334 C   0  0  0  0  0  0  0  0  0  0  0  0
    4.6005  -14.8050   26.1449 N   0  0  0  0  0  0  0  0  0  0  0  0
    4.6647  -15.7230   27.1241 C   0  0  0  0  0  0  0  0  0  0  0  0
    3.6416  -15.9318   28.0256 C   0  0  0  0  0  0  0  0  0  0  0  0
    2.4950  -15.2271   28.0002 N   0  0  0  0  0  0  0  0  0  0  0  0
    2.4308  -14.3145   26.9865 C   0  0  0  0  0  0  0  0  0  0  0  0
    1.2908  -13.6004   26.9444 F   0  0  0  0  0  0  0  0  0  0  0  0
    4.3469  -13.3150   23.9071 C   0  0  0  0  0  0  0  0  0  0  0  0
    4.8227  -11.9450   23.4442 C   0  0  0  0  0  0  0  0  0  0  0  0
  2  1  1  6
  2  3  1  0
  2  4  1  0
  4  5  1  0
  5  6  1  0
  6  7  1  0
  7  8  1  0
  8  9  2  0
  9 10  1  0
 10 11  2  0
 11 12  1  0
 12 13  2  0
 13 14  1  0
  7 15  1  0
 15 16  1  0
 16  4  1  0
 13  8  1  0
M  END
>  <placement_batch>  (83) 
CpKRS_FrAncestor_bulkdock_iter2_cluster_best5

>  <name>  (83) 
IESWSWZCSJNVPR-UHFFFAOYSA-N-P33

>  <HIPPO Pose ID>  (83) 
55540

>  <inchikey>  (83) 
IESWSWZCSJNVPR-UHFFFAOYSA-N

>  <inspiration_score>  (83) 
0.7

>  <tags>  (83) 
CpKRS_FrAncestor_bulkdock_iter2,CpKRS_FrAncestor_bulkdock_iter2_cluster_best5,BulkDock Fragalysis export,fragmenstein_placed,CpKRS_FrAncestor_bulkdock_iter2_exported

>  <distance_score>  (83) 
0.544356

>  <ref_pdb>  (83) 
x0602b

>  <alias>  (83) 
IESWSWZCSJNVPR-UHFFFAOYSA-N-P33

>  <subsites>  (83) 


>  <smiles>  (83) 
CC(F)C1CCN(c2nccnc2F)CC1

>  <HIPPO Compound ID>  (83) 
133924

>  <ref_mols>  (83) 
x0489a

>  <energy_score>  (83) 
-26.387689

$$$$
QBVHOFQRJTZLDS-UHFFFAOYSA-N-P49
     RDKit          3D

 14 14  0  0  0  0  0  0  0  0999 V2000
    5.3586   -8.5729   23.0686 C   0  0  0  0  0  0  0  0  0  0  0  0
    4.4450   -9.5540   23.7818 C   0  0  2  0  0  0  0  0  0  0  0  0
    4.5150   -9.2727   25.1179 F   0  0  0  0  0  0  0  0  0  0  0  0
    4.8465  -11.0161   23.5907 C   0  0  2  0  0  0  0  0  0  0  0  0
    4.8521  -11.4508   22.1319 C   0  0  0  0  0  0  0  0  0  0  0  0
    4.0114  -11.9125   24.3624 N   0  0  0  0  0  0  0  0  0  0  0  0
    4.1730  -13.4045   24.6721 C   0  0  0  0  0  0  0  0  0  0  0  0
    4.9609  -14.1715   24.2947 O   0  0  0  0  0  0  0  0  0  0  0  0
    3.1162  -13.7903   25.6324 C   0  0  0  0  0  0  0  0  0  0  0  0
    2.0136  -12.9458   25.8697 N   0  0  0  0  0  0  0  0  0  0  0  0
    1.2440  -13.4830   26.7897 C   0  0  0  0  0  0  0  0  0  0  0  0
    1.7382  -14.9935   27.4173 S   0  0  0  0  0  0  0  0  0  0  0  0
    3.0950  -14.9417   26.3926 C   0  0  0  0  0  0  0  0  0  0  0  0
    4.3952  -16.3265   26.3863 Br  0  0  0  0  0  0  0  0  0  0  0  0
  2  1  1  6
  2  3  1  0
  2  4  1  0
  4  5  1  6
  4  6  1  0
  6  7  1  0
  7  8  2  0
  7  9  1  0
  9 10  1  0
 10 11  2  0
 11 12  1  0
 12 13  1  0
 13 14  1  0
 13  9  2  0
M  END
>  <placement_batch>  (84) 
CpKRS_FrAncestor_bulkdock_iter2_cluster_best5

>  <name>  (84) 
QBVHOFQRJTZLDS-UHFFFAOYSA-N-P49

>  <HIPPO Pose ID>  (84) 
55551

>  <inchikey>  (84) 
QBVHOFQRJTZLDS-UHFFFAOYSA-N

>  <inspiration_score>  (84) 
0.636

>  <tags>  (84) 
CpKRS_FrAncestor_bulkdock_iter2,CpKRS_FrAncestor_bulkdock_iter2_cluster_best5,BulkDock Fragalysis export,fragmenstein_placed,CpKRS_FrAncestor_bulkdock_iter2_exported

>  <distance_score>  (84) 
0.636218

>  <ref_pdb>  (84) 
x0602b

>  <alias>  (84) 
QBVHOFQRJTZLDS-UHFFFAOYSA-N-P49

>  <subsites>  (84) 


>  <smiles>  (84) 
CC(F)C(C)NC(=O)c1ncsc1Br

>  <HIPPO Compound ID>  (84) 
450743

>  <ref_mols>  (84) 
x0504b

>  <energy_score>  (84) 
-84.183844

$$$$
DMUUOWVEXVBNTN-UHFFFAOYSA-N-P49
     RDKit          3D

 14 14  0  0  0  0  0  0  0  0999 V2000
    5.3076   -8.6391   23.0457 C   0  0  0  0  0  0  0  0  0  0  0  0
    4.4153   -9.6292   23.7748 C   0  0  2  0  0  0  0  0  0  0  0  0
    4.4839   -9.3271   25.1064 F   0  0  0  0  0  0  0  0  0  0  0  0
    4.8471  -11.0861   23.6024 C   0  0  2  0  0  0  0  0  0  0  0  0
    4.8549  -11.5426   22.1505 C   0  0  0  0  0  0  0  0  0  0  0  0
    4.0396  -11.9941   24.3908 N   0  0  0  0  0  0  0  0  0  0  0  0
    4.2648  -13.4664   24.7563 C   0  0  0  0  0  0  0  0  0  0  0  0
    5.0951  -14.2081   24.4202 O   0  0  0  0  0  0  0  0  0  0  0  0
    3.2097  -13.8718   25.7044 C   0  0  0  0  0  0  0  0  0  0  0  0
    2.0729  -13.0686   25.9233 N   0  0  0  0  0  0  0  0  0  0  0  0
    1.3219  -13.6282   26.8464 C   0  0  0  0  0  0  0  0  0  0  0  0
    1.8708  -15.1176   27.4855 S   0  0  0  0  0  0  0  0  0  0  0  0
    3.2300  -15.0157   26.4722 C   0  0  0  0  0  0  0  0  0  0  0  0
    4.4089  -16.2519   26.5423 Cl  0  0  0  0  0  0  0  0  0  0  0  0
  2  1  1  6
  2  3  1  0
  2  4  1  0
  4  5  1  6
  4  6  1  0
  6  7  1  0
  7  8  2  0
  7  9  1  0
  9 10  1  0
 10 11  2  0
 11 12  1  0
 12 13  1  0
 13 14  1  0
 13  9  2  0
M  END
>  <placement_batch>  (85) 
CpKRS_FrAncestor_bulkdock_iter2_cluster_best5

>  <name>  (85) 
DMUUOWVEXVBNTN-UHFFFAOYSA-N-P49

>  <HIPPO Pose ID>  (85) 
55557

>  <inchikey>  (85) 
DMUUOWVEXVBNTN-UHFFFAOYSA-N

>  <inspiration_score>  (85) 
0.64

>  <tags>  (85) 
CpKRS_FrAncestor_bulkdock_iter2,CpKRS_FrAncestor_bulkdock_iter2_cluster_best5,BulkDock Fragalysis export,fragmenstein_placed,CpKRS_FrAncestor_bulkdock_iter2_exported

>  <distance_score>  (85) 
0.597333

>  <ref_pdb>  (85) 
x0602b

>  <alias>  (85) 
DMUUOWVEXVBNTN-UHFFFAOYSA-N-P49

>  <subsites>  (85) 


>  <smiles>  (85) 
CC(F)C(C)NC(=O)c1ncsc1Cl

>  <HIPPO Compound ID>  (85) 
450744

>  <ref_mols>  (85) 
x0504b

>  <energy_score>  (85) 
-78.983789

$$$$
IGBAWKJWKKQPRI-UHFFFAOYSA-N-P27
     RDKit          3D

 17 17  0  0  0  0  0  0  0  0999 V2000
   23.8467   22.3424   28.0971 C   0  0  0  0  0  0  0  0  0  0  0  0
   23.3021   21.1382   27.8811 C   0  0  0  0  0  0  0  0  0  0  0  0
   21.8325   20.9096   27.8003 C   0  0  0  0  0  0  0  0  0  0  0  0
   21.3208   20.0802   28.4364 O   0  0  0  0  0  0  0  0  0  0  0  0
   21.2418   21.8745   26.7601 N   0  0  0  0  0  0  0  0  0  0  0  0
   19.8758   22.0880   26.3497 C   0  0  0  0  0  0  0  0  0  0  0  0
   19.0621   22.7746   27.4469 C   0  0  0  0  0  0  0  0  0  0  0  0
   17.6658   23.1517   27.0150 C   0  0  0  0  0  0  0  0  0  0  0  0
   17.2386   24.4842   27.0837 C   0  0  0  0  0  0  0  0  0  0  0  0
   15.9299   24.8319   26.7480 C   0  0  0  0  0  0  0  0  0  0  0  0
   15.0331   23.8373   26.3660 C   0  0  0  0  0  0  0  0  0  0  0  0
   13.3815   24.2846   25.9311 S   0  0  0  0  0  0  0  0  0  0  0  0
   13.0493   23.3325   24.4937 C   0  0  0  0  0  0  0  0  0  0  0  0
   13.3865   25.6741   25.5071 O   0  0  0  0  0  0  0  0  0  0  0  0
   12.4954   23.8150   26.9712 O   0  0  0  0  0  0  0  0  0  0  0  0
   15.4420   22.5049   26.2774 C   0  0  0  0  0  0  0  0  0  0  0  0
   16.7591   22.1704   26.5944 C   0  0  0  0  0  0  0  0  0  0  0  0
  1  2  2  0
  2  3  1  0
  3  4  2  0
  3  5  1  0
  5  6  1  0
  6  7  1  0
  7  8  1  0
  8  9  2  0
  9 10  1  0
 10 11  2  0
 11 12  1  0
 12 13  1  0
 12 14  2  0
 12 15  2  0
 11 16  1  0
 16 17  2  0
 17  8  1  0
M  END
>  <placement_batch>  (86) 
CpKRS_FrAncestor_bulkdock_iter2_cluster_best5

>  <name>  (86) 
IGBAWKJWKKQPRI-UHFFFAOYSA-N-P27

>  <HIPPO Pose ID>  (86) 
55752

>  <inchikey>  (86) 
IGBAWKJWKKQPRI-UHFFFAOYSA-N

>  <inspiration_score>  (86) 
0.681

>  <tags>  (86) 
CpKRS_FrAncestor_bulkdock_iter2,CpKRS_FrAncestor_bulkdock_iter2_cluster_best5,BulkDock Fragalysis export,fragmenstein_placed,CpKRS_FrAncestor_bulkdock_iter2_exported

>  <distance_score>  (86) 
0.930175

>  <ref_pdb>  (86) 
x0602b

>  <alias>  (86) 
IGBAWKJWKKQPRI-UHFFFAOYSA-N-P27

>  <subsites>  (86) 


>  <smiles>  (86) 
C=CC(=O)NCCc1ccc(S(C)(=O)=O)cc1

>  <HIPPO Compound ID>  (86) 
450795

>  <ref_mols>  (86) 
x0483a

>  <energy_score>  (86) 
-8.563168

$$$$
WHXZIHMVIDARGA-UHFFFAOYSA-N-P47
     RDKit          3D

 14 14  0  0  0  0  0  0  0  0999 V2000
    3.4738    9.1750   40.9078 C   0  0  0  0  0  0  0  0  0  0  0  0
    3.5254    7.8695   41.6659 C   0  0  0  0  0  0  0  0  0  0  0  0
    3.9825    6.9108   40.8214 F   0  0  0  0  0  0  0  0  0  0  0  0
    4.4460    7.9729   42.6632 F   0  0  0  0  0  0  0  0  0  0  0  0
    2.1677    7.4727   42.2555 C   0  0  0  0  0  0  0  0  0  0  0  0
    2.2749    6.4286   43.2480 N   0  0  0  0  0  0  0  0  0  0  0  0
    2.9929    5.0804   43.1976 C   0  0  0  0  0  0  0  0  0  0  0  0
    3.5503    4.5565   42.3241 O   0  0  0  0  0  0  0  0  0  0  0  0
    2.9394    4.4812   44.5392 C   0  0  0  0  0  0  0  0  0  0  0  0
    2.2349    5.1026   45.5872 N   0  0  0  0  0  0  0  0  0  0  0  0
    2.3337    4.3732   46.6776 C   0  0  0  0  0  0  0  0  0  0  0  0
    3.2797    2.9571   46.5431 S   0  0  0  0  0  0  0  0  0  0  0  0
    3.5630    3.3111   44.9106 C   0  0  0  0  0  0  0  0  0  0  0  0
    4.5175    2.2326   43.9767 Cl  0  0  0  0  0  0  0  0  0  0  0  0
  1  2  1  0
  2  3  1  0
  2  4  1  0
  2  5  1  0
  5  6  1  0
  6  7  1  0
  7  8  2  0
  7  9  1  0
  9 10  1  0
 10 11  2  0
 11 12  1  0
 12 13  1  0
 13 14  1  0
 13  9  2  0
M  END
>  <placement_batch>  (87) 
CpKRS_FrAncestor_bulkdock_iter2_cluster_best5

>  <name>  (87) 
WHXZIHMVIDARGA-UHFFFAOYSA-N-P47

>  <HIPPO Pose ID>  (87) 
55867

>  <inchikey>  (87) 
WHXZIHMVIDARGA-UHFFFAOYSA-N

>  <inspiration_score>  (87) 
0.703

>  <tags>  (87) 
CpKRS_FrAncestor_bulkdock_iter2,CpKRS_FrAncestor_bulkdock_iter2_cluster_best5,BulkDock Fragalysis export,fragmenstein_placed,CpKRS_FrAncestor_bulkdock_iter2_exported

>  <distance_score>  (87) 
0.441175

>  <ref_pdb>  (87) 
x0602b

>  <alias>  (87) 
WHXZIHMVIDARGA-UHFFFAOYSA-N-P47

>  <subsites>  (87) 


>  <smiles>  (87) 
CC(F)(F)CNC(=O)c1ncsc1Cl

>  <HIPPO Compound ID>  (87) 
450819

>  <ref_mols>  (87) 
x0504c

>  <energy_score>  (87) 
-66.483795

$$$$
VIVSOSBDAZWTAB-UHFFFAOYSA-N-P40
     RDKit          3D

 15 15  0  0  0  0  0  0  0  0999 V2000
    1.4468  -16.9460   25.8311 C   0  0  0  0  0  0  0  0  0  0  0  0
    1.9162  -15.5251   25.6616 C   0  0  0  0  0  0  0  0  0  0  0  0
    1.4201  -15.0499   24.4755 F   0  0  0  0  0  0  0  0  0  0  0  0
    1.3003  -14.7397   26.6041 F   0  0  0  0  0  0  0  0  0  0  0  0
    3.4592  -15.3805   25.7145 C   0  0  0  0  0  0  0  0  0  0  0  0
    4.2185  -16.2508   25.5314 O   0  0  0  0  0  0  0  0  0  0  0  0
    3.7042  -13.8617   25.9491 N   0  0  0  0  0  0  0  0  0  0  0  0
    4.9131  -13.1004   25.9116 C   0  0  0  0  0  0  0  0  0  0  0  0
    4.8987  -12.2182   24.6956 C   0  0  0  0  0  0  0  0  0  0  0  0
    4.5856  -12.7426   23.4345 C   0  0  0  0  0  0  0  0  0  0  0  0
    4.5754  -11.8956   22.3412 C   0  0  0  0  0  0  0  0  0  0  0  0
    4.8441  -10.5755   22.4136 N   0  0  0  0  0  0  0  0  0  0  0  0
    5.1845  -10.1019   23.6269 C   0  0  0  0  0  0  0  0  0  0  0  0
    5.4660   -8.7947   23.7161 F   0  0  0  0  0  0  0  0  0  0  0  0
    5.2205  -10.8636   24.7830 C   0  0  0  0  0  0  0  0  0  0  0  0
  1  2  1  0
  2  3  1  0
  2  4  1  0
  2  5  1  0
  5  6  2  0
  5  7  1  0
  7  8  1  0
  8  9  1  0
  9 10  2  0
 10 11  1  0
 11 12  2  0
 12 13  1  0
 13 14  1  0
 13 15  2  0
 15  9  1  0
M  END
>  <placement_batch>  (88) 
CpKRS_FrAncestor_bulkdock_iter2_cluster_best5

>  <name>  (88) 
VIVSOSBDAZWTAB-UHFFFAOYSA-N-P40

>  <HIPPO Pose ID>  (88) 
55889

>  <inchikey>  (88) 
VIVSOSBDAZWTAB-UHFFFAOYSA-N

>  <inspiration_score>  (88) 
0.867

>  <tags>  (88) 
CpKRS_FrAncestor_bulkdock_iter2,CpKRS_FrAncestor_bulkdock_iter2_cluster_best5,BulkDock Fragalysis export,fragmenstein_placed,CpKRS_FrAncestor_bulkdock_iter2_exported

>  <distance_score>  (88) 
0.417192

>  <ref_pdb>  (88) 
x0602b

>  <alias>  (88) 
VIVSOSBDAZWTAB-UHFFFAOYSA-N-P40

>  <subsites>  (88) 


>  <smiles>  (88) 
CC(F)(F)C(=O)NCc1ccnc(F)c1

>  <HIPPO Compound ID>  (88) 
303267

>  <ref_mols>  (88) 
x0602b

>  <energy_score>  (88) 
-15.213807

$$$$
CZEXDITZGVQZGC-UHFFFAOYSA-N-P28
     RDKit          3D

 19 20  0  0  0  0  0  0  0  0999 V2000
    3.3963    5.8245   41.3195 O   0  0  0  0  0  0  0  0  0  0  0  0
    3.1968    6.6160   42.1526 C   0  0  0  0  0  0  0  0  0  0  0  0
    3.1137    6.4553   43.6865 N   0  0  0  0  0  0  0  0  0  0  0  0
    3.1628    5.3125   44.4800 C   0  0  0  0  0  0  0  0  0  0  0  0
    3.8581    4.1871   44.0421 C   0  0  0  0  0  0  0  0  0  0  0  0
    4.0540    3.1312   44.9241 C   0  0  0  0  0  0  0  0  0  0  0  0
    4.7758    2.0705   44.5399 F   0  0  0  0  0  0  0  0  0  0  0  0
    3.5261    3.1533   46.2114 C   0  0  0  0  0  0  0  0  0  0  0  0
    2.7703    4.2425   46.6281 C   0  0  0  0  0  0  0  0  0  0  0  0
    2.5963    5.3228   45.7632 C   0  0  0  0  0  0  0  0  0  0  0  0
    1.4909    6.7505   46.3231 Br  0  0  0  0  0  0  0  0  0  0  0  0
    3.0935    8.0365   41.7443 C   0  0  0  0  0  0  0  0  0  0  0  0
    2.1708    8.9068   42.3061 C   0  0  0  0  0  0  0  0  0  0  0  0
    1.3145    8.5074   43.2533 F   0  0  0  0  0  0  0  0  0  0  0  0
    2.1464   10.2226   41.8757 C   0  0  0  0  0  0  0  0  0  0  0  0
    2.9778   10.7225   40.9294 N   0  0  0  0  0  0  0  0  0  0  0  0
    3.8688    9.8513   40.3941 C   0  0  0  0  0  0  0  0  0  0  0  0
    3.9560    8.5197   40.7637 C   0  0  0  0  0  0  0  0  0  0  0  0
    4.8830    7.7437   40.1891 F   0  0  0  0  0  0  0  0  0  0  0  0
  1  2  2  0
  2  3  1  0
  3  4  1  0
  4  5  2  0
  5  6  1  0
  6  7  1  0
  6  8  2  0
  8  9  1  0
  9 10  2  0
 10 11  1  0
  2 12  1  0
 12 13  2  0
 13 14  1  0
 13 15  1  0
 15 16  2  0
 16 17  1  0
 17 18  2  0
 18 19  1  0
 10  4  1  0
 18 12  1  0
M  END
>  <placement_batch>  (89) 
CpKRS_FrAncestor_bulkdock_iter2_cluster_best5

>  <name>  (89) 
CZEXDITZGVQZGC-UHFFFAOYSA-N-P28

>  <HIPPO Pose ID>  (89) 
56024

>  <inchikey>  (89) 
CZEXDITZGVQZGC-UHFFFAOYSA-N

>  <inspiration_score>  (89) 
0.887

>  <tags>  (89) 
CpKRS_FrAncestor_bulkdock_iter2,CpKRS_FrAncestor_bulkdock_iter2_cluster_best5,BulkDock Fragalysis export,fragmenstein_placed,CpKRS_FrAncestor_bulkdock_iter2_exported

>  <distance_score>  (89) 
0.377504

>  <ref_pdb>  (89) 
x0485c

>  <alias>  (89) 
CZEXDITZGVQZGC-UHFFFAOYSA-N-P28

>  <subsites>  (89) 


>  <smiles>  (89) 
O=C(Nc1cc(F)ccc1Br)c1c(F)cncc1F

>  <HIPPO Compound ID>  (89) 
34262

>  <ref_mols>  (89) 
x0485b

>  <energy_score>  (89) 
-12.457926

$$$$
BODSMFSBBMAZMI-UHFFFAOYSA-N-P29
     RDKit          3D

 18 19  0  0  0  0  0  0  0  0999 V2000
    3.6864    6.0829   41.3971 O   0  0  0  0  0  0  0  0  0  0  0  0
    3.3124    6.7944   42.2449 C   0  0  0  0  0  0  0  0  0  0  0  0
    2.9942    6.5025   43.7322 N   0  0  0  0  0  0  0  0  0  0  0  0
    3.1556    5.3349   44.4824 C   0  0  0  0  0  0  0  0  0  0  0  0
    3.7549    4.2147   43.9001 C   0  0  0  0  0  0  0  0  0  0  0  0
    4.0620    3.1164   44.6920 C   0  0  0  0  0  0  0  0  0  0  0  0
    4.7122    2.0720   44.1613 F   0  0  0  0  0  0  0  0  0  0  0  0
    3.7272    3.0996   46.0380 C   0  0  0  0  0  0  0  0  0  0  0  0
    4.0561    2.0369   46.7808 F   0  0  0  0  0  0  0  0  0  0  0  0
    3.0514    4.1602   46.6157 C   0  0  0  0  0  0  0  0  0  0  0  0
    2.7740    5.2824   45.8353 C   0  0  0  0  0  0  0  0  0  0  0  0
    1.8333    6.6935   46.6626 Br  0  0  0  0  0  0  0  0  0  0  0  0
    3.0977    8.2256   41.8819 C   0  0  0  0  0  0  0  0  0  0  0  0
    3.9422    8.7902   40.9220 C   0  0  0  0  0  0  0  0  0  0  0  0
    3.7007   10.0912   40.5240 C   0  0  0  0  0  0  0  0  0  0  0  0
    2.6949   10.8442   41.0151 N   0  0  0  0  0  0  0  0  0  0  0  0
    1.9014   10.2775   41.9506 C   0  0  0  0  0  0  0  0  0  0  0  0
    2.0535    8.9808   42.4066 C   0  0  0  0  0  0  0  0  0  0  0  0
  1  2  2  0
  2  3  1  0
  3  4  1  0
  4  5  2  0
  5  6  1  0
  6  7  1  0
  6  8  2  0
  8  9  1  0
  8 10  1  0
 10 11  2  0
 11 12  1  0
  2 13  1  0
 13 14  2  0
 14 15  1  0
 15 16  2  0
 16 17  1  0
 17 18  2  0
 11  4  1  0
 18 13  1  0
M  END
>  <placement_batch>  (90) 
CpKRS_FrAncestor_bulkdock_iter2_cluster_best5

>  <name>  (90) 
BODSMFSBBMAZMI-UHFFFAOYSA-N-P29

>  <HIPPO Pose ID>  (90) 
56067

>  <inchikey>  (90) 
BODSMFSBBMAZMI-UHFFFAOYSA-N

>  <inspiration_score>  (90) 
0.906

>  <tags>  (90) 
CpKRS_FrAncestor_bulkdock_iter2,CpKRS_FrAncestor_bulkdock_iter2_cluster_best5,BulkDock Fragalysis export,fragmenstein_placed,CpKRS_FrAncestor_bulkdock_iter2_exported

>  <distance_score>  (90) 
0.402047

>  <ref_pdb>  (90) 
x0485c

>  <alias>  (90) 
BODSMFSBBMAZMI-UHFFFAOYSA-N-P29

>  <subsites>  (90) 


>  <smiles>  (90) 
O=C(Nc1cc(F)c(F)cc1Br)c1ccncc1

>  <HIPPO Compound ID>  (90) 
34276

>  <ref_mols>  (90) 
x0485c

>  <energy_score>  (90) 
-11.830237

$$$$
GJGYGDWIZNRXGK-UHFFFAOYSA-N-P30
     RDKit          3D

 18 19  0  0  0  0  0  0  0  0999 V2000
    5.2317  -13.8517   24.5478 O   0  0  0  0  0  0  0  0  0  0  0  0
    4.4312  -13.2326   25.1231 C   0  0  0  0  0  0  0  0  0  0  0  0
    4.0444  -11.7482   25.0051 N   0  0  0  0  0  0  0  0  0  0  0  0
    4.4778  -10.7741   24.1241 C   0  0  0  0  0  0  0  0  0  0  0  0
    4.6482   -9.4916   24.6273 C   0  0  0  0  0  0  0  0  0  0  0  0
    5.2743   -8.5355   23.8385 C   0  0  0  0  0  0  0  0  0  0  0  0
    5.9606   -6.8406   24.7638 I   0  0  0  0  0  0  0  0  0  0  0  0
    5.5414   -8.7780   22.4946 C   0  0  0  0  0  0  0  0  0  0  0  0
    5.2817  -10.0392   21.9685 C   0  0  0  0  0  0  0  0  0  0  0  0
    4.8035  -11.0477   22.7966 C   0  0  0  0  0  0  0  0  0  0  0  0
    4.5830  -12.2538   22.2635 F   0  0  0  0  0  0  0  0  0  0  0  0
    3.6700  -13.9232   26.2102 C   0  0  0  0  0  0  0  0  0  0  0  0
    4.3537  -14.9390   26.8921 C   0  0  0  0  0  0  0  0  0  0  0  0
    3.7215  -15.5879   27.9368 C   0  0  0  0  0  0  0  0  0  0  0  0
    2.4755  -15.2942   28.3578 N   0  0  0  0  0  0  0  0  0  0  0  0
    1.8307  -14.3351   27.6581 C   0  0  0  0  0  0  0  0  0  0  0  0
    2.3559  -13.6412   26.5770 C   0  0  0  0  0  0  0  0  0  0  0  0
    1.3074  -12.5333   25.7756 Cl  0  0  0  0  0  0  0  0  0  0  0  0
  1  2  2  0
  2  3  1  0
  3  4  1  0
  4  5  2  0
  5  6  1  0
  6  7  1  0
  6  8  2  0
  8  9  1  0
  9 10  2  0
 10 11  1  0
  2 12  1  0
 12 13  2  0
 13 14  1  0
 14 15  2  0
 15 16  1  0
 16 17  2  0
 17 18  1  0
 10  4  1  0
 17 12  1  0
M  END
>  <placement_batch>  (91) 
CpKRS_FrAncestor_bulkdock_iter2_cluster_best5

>  <name>  (91) 
GJGYGDWIZNRXGK-UHFFFAOYSA-N-P30

>  <HIPPO Pose ID>  (91) 
56080

>  <inchikey>  (91) 
GJGYGDWIZNRXGK-UHFFFAOYSA-N

>  <inspiration_score>  (91) 
0.907

>  <tags>  (91) 
CpKRS_FrAncestor_bulkdock_iter2,CpKRS_FrAncestor_bulkdock_iter2_cluster_best5,BulkDock Fragalysis export,fragmenstein_placed,CpKRS_FrAncestor_bulkdock_iter2_exported

>  <distance_score>  (91) 
0.413997

>  <ref_pdb>  (91) 
x0485c

>  <alias>  (91) 
GJGYGDWIZNRXGK-UHFFFAOYSA-N-P30

>  <subsites>  (91) 


>  <smiles>  (91) 
O=C(Nc1cc(I)ccc1F)c1ccncc1Cl

>  <HIPPO Compound ID>  (91) 
34281

>  <ref_mols>  (91) 
x0485a

>  <energy_score>  (91) 
-13.243805

$$$$
WPVKBPKPJZKLQN-UHFFFAOYSA-N-P44
     RDKit          3D

 15 16  0  0  0  0  0  0  0  0999 V2000
  -11.7082  -12.0018   45.8137 O   0  0  0  0  0  0  0  0  0  0  0  0
  -11.1360  -12.8950   46.2973 C   0  0  0  0  0  0  0  0  0  0  0  0
  -11.4807  -14.3981   46.3378 N   0  0  0  0  0  0  0  0  0  0  0  0
  -12.5533  -15.1305   45.7104 C   0  0  0  0  0  0  0  0  0  0  0  0
  -12.3511  -15.2766   44.1958 C   0  0  0  0  0  0  0  0  0  0  0  0
  -13.6528  -15.6277   43.4730 C   0  0  0  0  0  0  0  0  0  0  0  0
  -13.7952  -17.1267   43.6750 C   0  0  0  0  0  0  0  0  0  0  0  0
  -12.3703  -17.6597   43.6160 C   0  0  0  0  0  0  0  0  0  0  0  0
  -11.4475  -16.4632   43.8507 C   0  0  0  0  0  0  0  0  0  0  0  0
   -9.9310  -12.6320   47.0871 C   0  0  0  0  0  0  0  0  0  0  0  0
   -9.3857  -13.2919   48.1749 C   0  0  0  0  0  0  0  0  0  0  0  0
   -8.2722  -12.7038   48.7491 N   0  0  0  0  0  0  0  0  0  0  0  0
   -7.9728  -11.6208   48.0742 C   0  0  0  0  0  0  0  0  0  0  0  0
   -6.4901  -10.5118   48.5799 Br  0  0  0  0  0  0  0  0  0  0  0  0
   -8.9776  -11.2338   46.7555 S   0  0  0  0  0  0  0  0  0  0  0  0
  1  2  2  0
  2  3  1  0
  3  4  1  0
  4  5  1  0
  5  6  1  0
  6  7  1  0
  7  8  1  0
  8  9  1  0
  2 10  1  0
 10 11  2  0
 11 12  1  0
 12 13  2  0
 13 14  1  0
 13 15  1  0
  9  5  1  0
 15 10  1  0
M  END
>  <placement_batch>  (92) 
CpKRS_FrAncestor_bulkdock_iter2_cluster_best5

>  <name>  (92) 
WPVKBPKPJZKLQN-UHFFFAOYSA-N-P44

>  <HIPPO Pose ID>  (92) 
56103

>  <inchikey>  (92) 
WPVKBPKPJZKLQN-UHFFFAOYSA-N

>  <inspiration_score>  (92) 
0.916

>  <tags>  (92) 
CpKRS_FrAncestor_bulkdock_iter2,CpKRS_FrAncestor_bulkdock_iter2_cluster_best5,BulkDock Fragalysis export,fragmenstein_placed,CpKRS_FrAncestor_bulkdock_iter2_exported

>  <distance_score>  (92) 
0.334791

>  <ref_pdb>  (92) 
x0485c

>  <alias>  (92) 
WPVKBPKPJZKLQN-UHFFFAOYSA-N-P44

>  <subsites>  (92) 


>  <smiles>  (92) 
O=C(NCC1CCCC1)c1cnc(Br)s1

>  <HIPPO Compound ID>  (92) 
34292

>  <ref_mols>  (92) 
x0502b

>  <energy_score>  (92) 
-61.06503

$$$$
CTSLTHJQDZIAOO-UHFFFAOYSA-N-P45
     RDKit          3D

 15 16  0  0  0  0  0  0  0  0999 V2000
    5.5729  -13.5510   25.1725 O   0  0  0  0  0  0  0  0  0  0  0  0
    4.4600  -13.3268   24.9165 C   0  0  0  0  0  0  0  0  0  0  0  0
    3.8446  -12.5624   23.7325 N   0  0  0  0  0  0  0  0  0  0  0  0
    4.4697  -11.8349   22.6688 C   0  0  0  0  0  0  0  0  0  0  0  0
    4.3297  -10.3305   22.8559 C   0  0  0  0  0  0  0  0  0  0  0  0
    4.9793   -9.7957   24.1374 C   0  0  0  0  0  0  0  0  0  0  0  0
    5.4764   -8.3876   23.8090 C   0  0  0  0  0  0  0  0  0  0  0  0
    5.0834   -8.1400   22.3602 C   0  0  0  0  0  0  0  0  0  0  0  0
    5.0158   -9.5286   21.7548 C   0  0  0  0  0  0  0  0  0  0  0  0
    3.4003  -13.7687   25.8270 C   0  0  0  0  0  0  0  0  0  0  0  0
    1.8370  -13.0417   25.8512 S   0  0  0  0  0  0  0  0  0  0  0  0
    1.4424  -13.9730   27.2222 C   0  0  0  0  0  0  0  0  0  0  0  0
    2.3368  -14.8338   27.6288 N   0  0  0  0  0  0  0  0  0  0  0  0
    3.4652  -14.7251   26.8278 C   0  0  0  0  0  0  0  0  0  0  0  0
    4.8043  -15.7203   27.1789 Cl  0  0  0  0  0  0  0  0  0  0  0  0
  1  2  2  0
  2  3  1  0
  3  4  1  0
  4  5  1  0
  5  6  1  0
  6  7  1  0
  7  8  1  0
  8  9  1  0
  2 10  1  0
 10 11  1  0
 11 12  1  0
 12 13  2  0
 13 14  1  0
 14 15  1  0
  9  5  1  0
 14 10  2  0
M  END
>  <placement_batch>  (93) 
CpKRS_FrAncestor_bulkdock_iter2_cluster_best5

>  <name>  (93) 
CTSLTHJQDZIAOO-UHFFFAOYSA-N-P45

>  <HIPPO Pose ID>  (93) 
56114

>  <inchikey>  (93) 
CTSLTHJQDZIAOO-UHFFFAOYSA-N

>  <inspiration_score>  (93) 
0.942

>  <tags>  (93) 
CpKRS_FrAncestor_bulkdock_iter2,CpKRS_FrAncestor_bulkdock_iter2_cluster_best5,BulkDock Fragalysis export,fragmenstein_placed,CpKRS_FrAncestor_bulkdock_iter2_exported

>  <distance_score>  (93) 
0.353922

>  <ref_pdb>  (93) 
x0485c

>  <alias>  (93) 
CTSLTHJQDZIAOO-UHFFFAOYSA-N-P45

>  <subsites>  (93) 


>  <smiles>  (93) 
O=C(NCC1CCCC1)c1scnc1Cl

>  <HIPPO Compound ID>  (93) 
34296

>  <ref_mols>  (93) 
x0502a

>  <energy_score>  (93) 
-58.00235

$$$$
XQWHGAWVDVJRJS-UHFFFAOYSA-N-P17
     RDKit          3D

 18 19  0  0  0  0  0  0  0  0999 V2000
    5.5548  -13.2581   25.2670 O   0  0  0  0  0  0  0  0  0  0  0  0
    4.4676  -13.4089   24.8876 C   0  0  0  0  0  0  0  0  0  0  0  0
    3.8070  -12.9827   23.5732 N   0  0  0  0  0  0  0  0  0  0  0  0
    4.3151  -12.1999   22.4883 C   0  0  0  0  0  0  0  0  0  0  0  0
    4.5008  -10.7288   22.8095 C   0  0  0  0  0  0  0  0  0  0  0  0
    4.3048  -10.1834   24.0868 C   0  0  0  0  0  0  0  0  0  0  0  0
    4.5738   -8.8386   24.3576 C   0  0  0  0  0  0  0  0  0  0  0  0
    5.0370   -8.0078   23.3483 C   0  0  0  0  0  0  0  0  0  0  0  0
    5.2073   -8.5205   22.0691 C   0  0  0  0  0  0  0  0  0  0  0  0
    4.9433   -9.8655   21.8001 C   0  0  0  0  0  0  0  0  0  0  0  0
    3.4783  -14.0312   25.8386 C   0  0  0  0  0  0  0  0  0  0  0  0
    2.1441  -13.5748   25.8587 C   0  0  0  0  0  0  0  0  0  0  0  0
    1.2424  -14.0246   26.8273 C   0  0  0  0  0  0  0  0  0  0  0  0
    1.6717  -14.8853   27.8316 C   0  0  0  0  0  0  0  0  0  0  0  0
    2.9908  -15.3179   27.8380 C   0  0  0  0  0  0  0  0  0  0  0  0
    3.3825  -16.1218   28.8819 O   0  0  0  0  0  0  0  0  0  0  0  0
    3.8935  -14.9192   26.8405 C   0  0  0  0  0  0  0  0  0  0  0  0
    5.4988  -15.5433   26.9492 Cl  0  0  0  0  0  0  0  0  0  0  0  0
  1  2  2  0
  2  3  1  0
  3  4  1  0
  4  5  1  0
  5  6  2  0
  6  7  1  0
  7  8  2  0
  8  9  1  0
  9 10  2  0
  2 11  1  0
 11 12  2  0
 12 13  1  0
 13 14  2  0
 14 15  1  0
 15 16  1  0
 15 17  2  0
 17 18  1  0
 10  5  1  0
 17 11  1  0
M  END
>  <placement_batch>  (94) 
CpKRS_FrAncestor_bulkdock_iter2_cluster_best5

>  <name>  (94) 
XQWHGAWVDVJRJS-UHFFFAOYSA-N-P17

>  <HIPPO Pose ID>  (94) 
56139

>  <inchikey>  (94) 
XQWHGAWVDVJRJS-UHFFFAOYSA-N

>  <inspiration_score>  (94) 
0.781

>  <tags>  (94) 
CpKRS_FrAncestor_bulkdock_iter2,CpKRS_FrAncestor_bulkdock_iter2_cluster_best5,BulkDock Fragalysis export,fragmenstein_placed,CpKRS_FrAncestor_bulkdock_iter2_exported

>  <distance_score>  (94) 
0.408597

>  <ref_pdb>  (94) 
x0485c

>  <alias>  (94) 
XQWHGAWVDVJRJS-UHFFFAOYSA-N-P17

>  <subsites>  (94) 


>  <smiles>  (94) 
O=C(NCc1ccccc1)c1cccc(O)c1Cl

>  <HIPPO Compound ID>  (94) 
34314

>  <ref_mols>  (94) 
x0434a

>  <energy_score>  (94) 
-10.234444

$$$$
XJNKVWZHDOHNJL-UHFFFAOYSA-N-P45
     RDKit          3D

 15 16  0  0  0  0  0  0  0  0999 V2000
    5.6683  -13.6595   25.1546 O   0  0  0  0  0  0  0  0  0  0  0  0
    4.5369  -13.4166   25.0198 C   0  0  0  0  0  0  0  0  0  0  0  0
    3.8221  -12.5431   23.9727 N   0  0  0  0  0  0  0  0  0  0  0  0
    4.3555  -11.7112   22.9315 C   0  0  0  0  0  0  0  0  0  0  0  0
    3.8266  -10.2732   22.9663 C   0  0  1  0  0  0  0  0  0  0  0  0
    4.1460   -9.5183   24.2548 C   0  0  0  0  0  0  0  0  0  0  0  0
    5.5728   -9.0327   24.0646 C   0  0  0  0  0  0  0  0  0  0  0  0
    5.6447   -8.6778   22.5900 C   0  0  2  0  0  0  0  0  0  0  0  0
    5.4452   -7.3390   22.4434 F   0  0  0  0  0  0  0  0  0  0  0  0
    4.5057   -9.4126   21.8947 C   0  0  0  0  0  0  0  0  0  0  0  0
    3.5794  -13.9656   25.9813 C   0  0  0  0  0  0  0  0  0  0  0  0
    3.8274  -14.9577   26.9147 C   0  0  0  0  0  0  0  0  0  0  0  0
    2.8172  -15.2127   27.8224 N   0  0  0  0  0  0  0  0  0  0  0  0
    1.8052  -14.4266   27.5473 C   0  0  0  0  0  0  0  0  0  0  0  0
    1.9686  -13.4038   26.1817 S   0  0  0  0  0  0  0  0  0  0  0  0
  1  2  2  0
  2  3  1  0
  3  4  1  0
  5  4  1  1
  5  6  1  0
  6  7  1  0
  7  8  1  0
  8  9  1  1
  8 10  1  0
  2 11  1  0
 11 12  2  0
 12 13  1  0
 13 14  2  0
 14 15  1  0
 10  5  1  0
 15 11  1  0
M  END
>  <placement_batch>  (95) 
CpKRS_FrAncestor_bulkdock_iter2_cluster_best5

>  <name>  (95) 
XJNKVWZHDOHNJL-UHFFFAOYSA-N-P45

>  <HIPPO Pose ID>  (95) 
56185

>  <inchikey>  (95) 
XJNKVWZHDOHNJL-UHFFFAOYSA-N

>  <inspiration_score>  (95) 
0.915

>  <tags>  (95) 
CpKRS_FrAncestor_bulkdock_iter2,CpKRS_FrAncestor_bulkdock_iter2_cluster_best5,BulkDock Fragalysis export,fragmenstein_placed,CpKRS_FrAncestor_bulkdock_iter2_exported

>  <distance_score>  (95) 
0.370312

>  <ref_pdb>  (95) 
x0485c

>  <alias>  (95) 
XJNKVWZHDOHNJL-UHFFFAOYSA-N-P45

>  <subsites>  (95) 


>  <smiles>  (95) 
O=C(NCC1CCC(F)C1)c1cncs1

>  <HIPPO Compound ID>  (95) 
34339

>  <ref_mols>  (95) 
x0502a

>  <energy_score>  (95) 
-44.628473

$$$$
ZOVOCGXDYOQYAQ-UHFFFAOYSA-N-P44
     RDKit          3D

 17 18  0  0  0  0  0  0  0  0999 V2000
  -11.8431  -12.2695   46.1766 O   0  0  0  0  0  0  0  0  0  0  0  0
  -11.0939  -13.0698   46.5723 C   0  0  0  0  0  0  0  0  0  0  0  0
  -11.1857  -14.6086   46.5755 N   0  0  0  0  0  0  0  0  0  0  0  0
  -12.2584  -15.4817   46.1793 C   0  0  0  0  0  0  0  0  0  0  0  0
  -12.7795  -15.2016   44.7602 C   0  0  2  0  0  0  0  0  0  0  0  0
  -13.8624  -16.2091   44.3576 C   0  0  0  0  0  0  0  0  0  0  0  0
  -13.1163  -17.4115   43.7707 C   0  0  0  0  0  0  0  0  0  0  0  0
  -11.7049  -16.9137   43.5018 C   0  0  0  0  0  0  0  0  0  0  0  0
  -10.8407  -17.4357   44.4090 F   0  0  0  0  0  0  0  0  0  0  0  0
  -11.2811  -17.2631   42.2750 F   0  0  0  0  0  0  0  0  0  0  0  0
  -11.7446  -15.4104   43.6579 C   0  0  0  0  0  0  0  0  0  0  0  0
   -9.8569  -12.6470   47.2243 C   0  0  0  0  0  0  0  0  0  0  0  0
   -9.1525  -13.2009   48.2802 C   0  0  0  0  0  0  0  0  0  0  0  0
   -8.0474  -12.4884   48.7134 N   0  0  0  0  0  0  0  0  0  0  0  0
   -7.9261  -11.4259   47.9589 C   0  0  0  0  0  0  0  0  0  0  0  0
   -6.6723  -10.2765   48.1881 Cl  0  0  0  0  0  0  0  0  0  0  0  0
   -9.0789  -11.1886   46.7384 S   0  0  0  0  0  0  0  0  0  0  0  0
  1  2  2  0
  2  3  1  0
  3  4  1  0
  5  4  1  1
  5  6  1  0
  6  7  1  0
  7  8  1  0
  8  9  1  0
  8 10  1  0
  8 11  1  0
  2 12  1  0
 12 13  2  0
 13 14  1  0
 14 15  2  0
 15 16  1  0
 15 17  1  0
 11  5  1  0
 17 12  1  0
M  END
>  <placement_batch>  (96) 
CpKRS_FrAncestor_bulkdock_iter2_cluster_best5

>  <name>  (96) 
ZOVOCGXDYOQYAQ-UHFFFAOYSA-N-P44

>  <HIPPO Pose ID>  (96) 
56207

>  <inchikey>  (96) 
ZOVOCGXDYOQYAQ-UHFFFAOYSA-N

>  <inspiration_score>  (96) 
0.899

>  <tags>  (96) 
CpKRS_FrAncestor_bulkdock_iter2,CpKRS_FrAncestor_bulkdock_iter2_cluster_best5,BulkDock Fragalysis export,fragmenstein_placed,CpKRS_FrAncestor_bulkdock_iter2_exported

>  <distance_score>  (96) 
0.579475

>  <ref_pdb>  (96) 
x0485c

>  <alias>  (96) 
ZOVOCGXDYOQYAQ-UHFFFAOYSA-N-P44

>  <subsites>  (96) 


>  <smiles>  (96) 
O=C(NCC1CCC(F)(F)C1)c1cnc(Cl)s1

>  <HIPPO Compound ID>  (96) 
34346

>  <ref_mols>  (96) 
x0502b

>  <energy_score>  (96) 
-63.824703

$$$$
ZALMLVKUOLCAEU-UHFFFAOYSA-N-P47
     RDKit          3D

 15 15  0  0  0  0  0  0  0  0999 V2000
    3.6352    4.5404   42.5985 O   0  0  0  0  0  0  0  0  0  0  0  0
    3.0303    5.0817   43.4327 C   0  0  0  0  0  0  0  0  0  0  0  0
    2.2688    6.4147   43.4038 N   0  0  0  0  0  0  0  0  0  0  0  0
    2.1676    7.4153   42.3677 C   0  0  0  0  0  0  0  0  0  0  0  0
    3.5111    7.7041   41.7140 C   0  0  2  0  0  0  0  0  0  0  0  0
    4.4341    7.9380   42.6976 F   0  0  0  0  0  0  0  0  0  0  0  0
    3.4042    8.9078   40.8035 C   0  0  0  0  0  0  0  0  0  0  0  0
    2.5082    8.6934   39.8103 F   0  0  0  0  0  0  0  0  0  0  0  0
    3.0045   10.0180   41.4652 F   0  0  0  0  0  0  0  0  0  0  0  0
    4.5885    9.1932   40.2176 F   0  0  0  0  0  0  0  0  0  0  0  0
    2.9537    4.4762   44.7607 C   0  0  0  0  0  0  0  0  0  0  0  0
    3.5564    3.3007   45.1700 C   0  0  0  0  0  0  0  0  0  0  0  0
    3.3522    2.9385   46.4874 N   0  0  0  0  0  0  0  0  0  0  0  0
    2.5945    3.8442   47.0655 C   0  0  0  0  0  0  0  0  0  0  0  0
    2.1016    5.1563   46.0837 S   0  0  0  0  0  0  0  0  0  0  0  0
  1  2  2  0
  2  3  1  0
  3  4  1  0
  4  5  1  0
  5  6  1  1
  5  7  1  0
  7  8  1  0
  7  9  1  0
  7 10  1  0
  2 11  1  0
 11 12  2  0
 12 13  1  0
 13 14  2  0
 14 15  1  0
 15 11  1  0
M  END
>  <placement_batch>  (97) 
CpKRS_FrAncestor_bulkdock_iter2_cluster_best5

>  <name>  (97) 
ZALMLVKUOLCAEU-UHFFFAOYSA-N-P47

>  <HIPPO Pose ID>  (97) 
56342

>  <inchikey>  (97) 
ZALMLVKUOLCAEU-UHFFFAOYSA-N

>  <inspiration_score>  (97) 
0.811

>  <tags>  (97) 
CpKRS_FrAncestor_bulkdock_iter2,CpKRS_FrAncestor_bulkdock_iter2_cluster_best5,BulkDock Fragalysis export,fragmenstein_placed,CpKRS_FrAncestor_bulkdock_iter2_exported

>  <distance_score>  (97) 
0.337873

>  <ref_pdb>  (97) 
x0485c

>  <alias>  (97) 
ZALMLVKUOLCAEU-UHFFFAOYSA-N-P47

>  <subsites>  (97) 


>  <smiles>  (97) 
O=C(NCC(F)C(F)(F)F)c1cncs1

>  <HIPPO Compound ID>  (97) 
34407

>  <ref_mols>  (97) 
x0504c

>  <energy_score>  (97) 
-65.334381

$$$$
BQYJMRPNIYXUPE-UHFFFAOYSA-N-P48
     RDKit          3D

 16 16  0  0  0  0  0  0  0  0999 V2000
    4.9505  -13.8589   24.5030 O   0  0  0  0  0  0  0  0  0  0  0  0
    3.8980  -13.4121   24.7079 C   0  0  0  0  0  0  0  0  0  0  0  0
    3.1224  -12.3207   23.9675 N   0  0  0  0  0  0  0  0  0  0  0  0
    3.5149  -11.4737   22.8670 C   0  0  0  0  0  0  0  0  0  0  0  0
    4.6802  -10.5377   23.1866 C   0  0  2  0  0  0  0  0  0  0  0  0
    4.2577   -9.5941   24.0774 F   0  0  0  0  0  0  0  0  0  0  0  0
    5.2194   -9.6804   21.7246 Cl  0  0  0  0  0  0  0  0  0  0  0  0
    3.0483  -13.8901   25.8172 C   0  0  0  0  0  0  0  0  0  0  0  0
    1.7509  -13.3754   25.9814 N   0  0  0  0  0  0  0  0  0  0  0  0
    1.1800  -13.9372   27.0227 C   0  0  0  0  0  0  0  0  0  0  0  0
    2.1124  -15.1042   27.8486 S   0  0  0  0  0  0  0  0  0  0  0  0
    3.4130  -14.8390   26.7559 C   0  0  0  0  0  0  0  0  0  0  0  0
    4.6840  -15.5846   26.8992 C   0  0  0  0  0  0  0  0  0  0  0  0
    4.8091  -16.1369   28.1373 F   0  0  0  0  0  0  0  0  0  0  0  0
    5.7907  -14.8176   26.7390 F   0  0  0  0  0  0  0  0  0  0  0  0
    4.7795  -16.6069   26.0108 F   0  0  0  0  0  0  0  0  0  0  0  0
  1  2  2  0
  2  3  1  0
  3  4  1  0
  4  5  1  0
  5  6  1  1
  5  7  1  0
  2  8  1  0
  8  9  1  0
  9 10  2  0
 10 11  1  0
 11 12  1  0
 12 13  1  0
 13 14  1  0
 13 15  1  0
 13 16  1  0
 12  8  2  0
M  END
>  <placement_batch>  (98) 
CpKRS_FrAncestor_bulkdock_iter2_cluster_best5

>  <name>  (98) 
BQYJMRPNIYXUPE-UHFFFAOYSA-N-P48

>  <HIPPO Pose ID>  (98) 
56358

>  <inchikey>  (98) 
BQYJMRPNIYXUPE-UHFFFAOYSA-N

>  <inspiration_score>  (98) 
0.674

>  <tags>  (98) 
CpKRS_FrAncestor_bulkdock_iter2,CpKRS_FrAncestor_bulkdock_iter2_cluster_best5,BulkDock Fragalysis export,fragmenstein_placed,CpKRS_FrAncestor_bulkdock_iter2_exported

>  <distance_score>  (98) 
0.422715

>  <ref_pdb>  (98) 
x0485c

>  <alias>  (98) 
BQYJMRPNIYXUPE-UHFFFAOYSA-N-P48

>  <subsites>  (98) 


>  <smiles>  (98) 
O=C(NCC(F)Cl)c1ncsc1C(F)(F)F

>  <HIPPO Compound ID>  (98) 
34413

>  <ref_mols>  (98) 
x0504a

>  <energy_score>  (98) 
-69.440655

$$$$
JJHZIERBJLUUEI-UHFFFAOYSA-N-P48
     RDKit          3D

 16 16  0  0  0  0  0  0  0  0999 V2000
    4.9344  -13.8146   24.4934 O   0  0  0  0  0  0  0  0  0  0  0  0
    3.8736  -13.3921   24.7064 C   0  0  0  0  0  0  0  0  0  0  0  0
    3.0621  -12.3288   23.9643 N   0  0  0  0  0  0  0  0  0  0  0  0
    3.4196  -11.4852   22.8518 C   0  0  0  0  0  0  0  0  0  0  0  0
    4.6251  -10.5813   23.0802 C   0  0  0  0  0  0  0  0  0  0  0  0
    4.9359   -9.9463   21.9180 F   0  0  0  0  0  0  0  0  0  0  0  0
    4.2958   -9.5941   23.9592 F   0  0  0  0  0  0  0  0  0  0  0  0
    3.0433  -13.8870   25.8234 C   0  0  0  0  0  0  0  0  0  0  0  0
    1.7405  -13.3907   26.0036 N   0  0  0  0  0  0  0  0  0  0  0  0
    1.1842  -13.9717   27.0422 C   0  0  0  0  0  0  0  0  0  0  0  0
    2.1408  -15.1295   27.8532 S   0  0  0  0  0  0  0  0  0  0  0  0
    3.4291  -14.8374   26.7521 C   0  0  0  0  0  0  0  0  0  0  0  0
    4.7110  -15.5668   26.8807 C   0  0  0  0  0  0  0  0  0  0  0  0
    4.8107  -16.5916   25.9965 F   0  0  0  0  0  0  0  0  0  0  0  0
    4.8581  -16.1111   28.1205 F   0  0  0  0  0  0  0  0  0  0  0  0
    5.8058  -14.7858   26.7065 F   0  0  0  0  0  0  0  0  0  0  0  0
  1  2  2  0
  2  3  1  0
  3  4  1  0
  4  5  1  0
  5  6  1  0
  5  7  1  0
  2  8  1  0
  8  9  1  0
  9 10  2  0
 10 11  1  0
 11 12  1  0
 12 13  1  0
 13 14  1  0
 13 15  1  0
 13 16  1  0
 12  8  2  0
M  END
>  <placement_batch>  (99) 
CpKRS_FrAncestor_bulkdock_iter2_cluster_best5

>  <name>  (99) 
JJHZIERBJLUUEI-UHFFFAOYSA-N-P48

>  <HIPPO Pose ID>  (99) 
56403

>  <inchikey>  (99) 
JJHZIERBJLUUEI-UHFFFAOYSA-N

>  <inspiration_score>  (99) 
0.665

>  <tags>  (99) 
CpKRS_FrAncestor_bulkdock_iter2,CpKRS_FrAncestor_bulkdock_iter2_cluster_best5,BulkDock Fragalysis export,fragmenstein_placed,CpKRS_FrAncestor_bulkdock_iter2_exported

>  <distance_score>  (99) 
0.420336

>  <ref_pdb>  (99) 
x0485c

>  <alias>  (99) 
JJHZIERBJLUUEI-UHFFFAOYSA-N-P48

>  <subsites>  (99) 


>  <smiles>  (99) 
O=C(NCC(F)F)c1ncsc1C(F)(F)F

>  <HIPPO Compound ID>  (99) 
34428

>  <ref_mols>  (99) 
x0504a

>  <energy_score>  (99) 
-76.171553

$$$$
NDBAYISQRZJZCO-UHFFFAOYSA-N-P48
     RDKit          3D

 14 14  0  0  0  0  0  0  0  0999 V2000
    5.6635  -13.7064   24.8378 O   0  0  0  0  0  0  0  0  0  0  0  0
    4.5355  -13.4315   24.7745 C   0  0  0  0  0  0  0  0  0  0  0  0
    3.7890  -12.5118   23.7977 N   0  0  0  0  0  0  0  0  0  0  0  0
    4.2606  -11.8036   22.6236 C   0  0  0  0  0  0  0  0  0  0  0  0
    4.3281  -10.2838   22.7631 C   0  0  0  0  0  0  0  0  0  0  0  0
    4.9881   -9.8837   23.8705 F   0  0  0  0  0  0  0  0  0  0  0  0
    3.0844   -9.7365   22.8255 F   0  0  0  0  0  0  0  0  0  0  0  0
    4.9451   -9.7237   21.6975 F   0  0  0  0  0  0  0  0  0  0  0  0
    3.6235  -13.9854   25.7686 C   0  0  0  0  0  0  0  0  0  0  0  0
    3.9059  -14.9967   26.6726 C   0  0  0  0  0  0  0  0  0  0  0  0
    2.9234  -15.2728   27.5996 N   0  0  0  0  0  0  0  0  0  0  0  0
    1.9345  -14.4449   27.3917 C   0  0  0  0  0  0  0  0  0  0  0  0
    0.6159  -14.3378   28.4628 Cl  0  0  0  0  0  0  0  0  0  0  0  0
    2.0284  -13.4135   26.0487 S   0  0  0  0  0  0  0  0  0  0  0  0
  1  2  2  0
  2  3  1  0
  3  4  1  0
  4  5  1  0
  5  6  1  0
  5  7  1  0
  5  8  1  0
  2  9  1  0
  9 10  2  0
 10 11  1  0
 11 12  2  0
 12 13  1  0
 12 14  1  0
 14  9  1  0
M  END
>  <placement_batch>  (100) 
CpKRS_FrAncestor_bulkdock_iter2_cluster_best5

>  <name>  (100) 
NDBAYISQRZJZCO-UHFFFAOYSA-N-P48

>  <HIPPO Pose ID>  (100) 
56463

>  <inchikey>  (100) 
NDBAYISQRZJZCO-UHFFFAOYSA-N

>  <inspiration_score>  (100) 
0.718

>  <tags>  (100) 
CpKRS_FrAncestor_bulkdock_iter2,CpKRS_FrAncestor_bulkdock_iter2_cluster_best5,BulkDock Fragalysis export,fragmenstein_placed,CpKRS_FrAncestor_bulkdock_iter2_exported

>  <distance_score>  (100) 
0.54089

>  <ref_pdb>  (100) 
x0485c

>  <alias>  (100) 
NDBAYISQRZJZCO-UHFFFAOYSA-N-P48

>  <subsites>  (100) 


>  <smiles>  (100) 
O=C(NCC(F)(F)F)c1cnc(Cl)s1

>  <HIPPO Compound ID>  (100) 
34448

>  <ref_mols>  (100) 
x0504a

>  <energy_score>  (100) 
-67.899814

$$$$
GGSBGMMVZUPKAF-UHFFFAOYSA-N-P49
     RDKit          3D

 17 17  0  0  0  0  0  0  0  0999 V2000
    4.8962  -13.8578   24.3910 O   0  0  0  0  0  0  0  0  0  0  0  0
    3.9089  -13.3137   24.6708 C   0  0  0  0  0  0  0  0  0  0  0  0
    3.3005  -12.0197   24.1258 N   0  0  0  0  0  0  0  0  0  0  0  0
    3.8258  -11.0592   23.1792 C   0  0  0  0  0  0  0  0  0  0  0  0
    4.8080  -10.0565   23.7836 C   0  0  0  0  0  0  0  0  0  0  0  0
    4.2510   -9.3922   24.8229 F   0  0  0  0  0  0  0  0  0  0  0  0
    5.9305  -10.6448   24.2371 F   0  0  0  0  0  0  0  0  0  0  0  0
    5.1639   -9.1263   22.8663 F   0  0  0  0  0  0  0  0  0  0  0  0
    3.0120  -13.8237   25.7265 C   0  0  0  0  0  0  0  0  0  0  0  0
    1.7525  -13.2324   25.9301 N   0  0  0  0  0  0  0  0  0  0  0  0
    1.1404  -13.8392   26.9188 C   0  0  0  0  0  0  0  0  0  0  0  0
    1.9720  -15.1374   27.6456 S   0  0  0  0  0  0  0  0  0  0  0  0
    3.3132  -14.8503   26.6050 C   0  0  0  0  0  0  0  0  0  0  0  0
    4.5535  -15.6489   26.7404 C   0  0  0  0  0  0  0  0  0  0  0  0
    5.6928  -14.9335   26.5764 F   0  0  0  0  0  0  0  0  0  0  0  0
    4.6546  -16.1957   27.9824 F   0  0  0  0  0  0  0  0  0  0  0  0
    4.6006  -16.6786   25.8571 F   0  0  0  0  0  0  0  0  0  0  0  0
  1  2  2  0
  2  3  1  0
  3  4  1  0
  4  5  1  0
  5  6  1  0
  5  7  1  0
  5  8  1  0
  2  9  1  0
  9 10  1  0
 10 11  2  0
 11 12  1  0
 12 13  1  0
 13 14  1  0
 14 15  1  0
 14 16  1  0
 14 17  1  0
 13  9  2  0
M  END
>  <placement_batch>  (101) 
CpKRS_FrAncestor_bulkdock_iter2_cluster_best5

>  <name>  (101) 
GGSBGMMVZUPKAF-UHFFFAOYSA-N-P49

>  <HIPPO Pose ID>  (101) 
56479

>  <inchikey>  (101) 
GGSBGMMVZUPKAF-UHFFFAOYSA-N

>  <inspiration_score>  (101) 
0.678

>  <tags>  (101) 
CpKRS_FrAncestor_bulkdock_iter2,CpKRS_FrAncestor_bulkdock_iter2_cluster_best5,BulkDock Fragalysis export,fragmenstein_placed,CpKRS_FrAncestor_bulkdock_iter2_exported

>  <distance_score>  (101) 
0.363411

>  <ref_pdb>  (101) 
x0485c

>  <alias>  (101) 
GGSBGMMVZUPKAF-UHFFFAOYSA-N-P49

>  <subsites>  (101) 


>  <smiles>  (101) 
O=C(NCC(F)(F)F)c1ncsc1C(F)(F)F

>  <HIPPO Compound ID>  (101) 
34453

>  <ref_mols>  (101) 
x0504b

>  <energy_score>  (101) 
-82.034545

$$$$
RRVAGNIDDPEFKA-UHFFFAOYSA-N-P47
     RDKit          3D

 17 17  0  0  0  0  0  0  0  0999 V2000
    3.6458    4.5663   42.4845 O   0  0  0  0  0  0  0  0  0  0  0  0
    3.0601    5.1018   43.3313 C   0  0  0  0  0  0  0  0  0  0  0  0
    2.3781    6.4709   43.3526 N   0  0  0  0  0  0  0  0  0  0  0  0
    2.1873    7.4451   42.2955 C   0  0  0  0  0  0  0  0  0  0  0  0
    3.4829    7.8157   41.5736 C   0  0  0  0  0  0  0  0  0  0  0  0
    3.3300    8.9527   40.8588 F   0  0  0  0  0  0  0  0  0  0  0  0
    4.4839    8.0230   42.4648 F   0  0  0  0  0  0  0  0  0  0  0  0
    3.8895    6.8577   40.7156 F   0  0  0  0  0  0  0  0  0  0  0  0
    3.0039    4.4630   44.6479 C   0  0  0  0  0  0  0  0  0  0  0  0
    2.1933    5.1470   45.9962 S   0  0  0  0  0  0  0  0  0  0  0  0
    2.6708    3.8207   46.9579 C   0  0  0  0  0  0  0  0  0  0  0  0
    3.3940    2.9042   46.3566 N   0  0  0  0  0  0  0  0  0  0  0  0
    3.5920    3.2539   45.0104 C   0  0  0  0  0  0  0  0  0  0  0  0
    4.3664    2.3424   44.0873 C   0  0  0  0  0  0  0  0  0  0  0  0
    3.6112    1.9075   43.0487 F   0  0  0  0  0  0  0  0  0  0  0  0
    4.8051    1.2206   44.7268 F   0  0  0  0  0  0  0  0  0  0  0  0
    5.4794    2.9331   43.5836 F   0  0  0  0  0  0  0  0  0  0  0  0
  1  2  2  0
  2  3  1  0
  3  4  1  0
  4  5  1  0
  5  6  1  0
  5  7  1  0
  5  8  1  0
  2  9  1  0
  9 10  1  0
 10 11  1  0
 11 12  2  0
 12 13  1  0
 13 14  1  0
 14 15  1  0
 14 16  1  0
 14 17  1  0
 13  9  2  0
M  END
>  <placement_batch>  (102) 
CpKRS_FrAncestor_bulkdock_iter2_cluster_best5

>  <name>  (102) 
RRVAGNIDDPEFKA-UHFFFAOYSA-N-P47

>  <HIPPO Pose ID>  (102) 
56492

>  <inchikey>  (102) 
RRVAGNIDDPEFKA-UHFFFAOYSA-N

>  <inspiration_score>  (102) 
0.799

>  <tags>  (102) 
CpKRS_FrAncestor_bulkdock_iter2,CpKRS_FrAncestor_bulkdock_iter2_cluster_best5,BulkDock Fragalysis export,fragmenstein_placed,CpKRS_FrAncestor_bulkdock_iter2_exported

>  <distance_score>  (102) 
0.310739

>  <ref_pdb>  (102) 
x0485c

>  <alias>  (102) 
RRVAGNIDDPEFKA-UHFFFAOYSA-N-P47

>  <subsites>  (102) 


>  <smiles>  (102) 
O=C(NCC(F)(F)F)c1scnc1C(F)(F)F

>  <HIPPO Compound ID>  (102) 
34457

>  <ref_mols>  (102) 
x0504c

>  <energy_score>  (102) 
-68.404235

$$$$
KGJGWDQUGUEMIW-UHFFFAOYSA-N-P27
     RDKit          3D

 14 14  0  0  0  0  0  0  0  0999 V2000
   20.0861   23.1266   25.2564 O   0  0  0  0  0  0  0  0  0  0  0  0
   19.7489   22.5229   26.2644 C   0  0  0  0  0  0  0  0  0  0  0  0
   20.0717   21.2275   26.4456 O   0  0  0  0  0  0  0  0  0  0  0  0
   18.9013   23.0635   27.3898 C   0  0  0  0  0  0  0  0  0  0  0  0
   17.4658   23.2567   26.9691 C   0  0  0  0  0  0  0  0  0  0  0  0
   16.7113   22.1566   26.5323 C   0  0  0  0  0  0  0  0  0  0  0  0
   15.3887   22.3198   26.1264 C   0  0  0  0  0  0  0  0  0  0  0  0
   14.8147   23.5908   26.1689 C   0  0  0  0  0  0  0  0  0  0  0  0
   13.1498   23.7967   25.6364 S   0  0  0  0  0  0  0  0  0  0  0  0
   12.3354   23.9854   26.8084 O   0  0  0  0  0  0  0  0  0  0  0  0
   12.8691   22.7790   24.6470 O   0  0  0  0  0  0  0  0  0  0  0  0
   13.1376   25.1703   24.7935 O   0  0  0  0  0  0  0  0  0  0  0  0
   15.5463   24.6979   26.5987 C   0  0  0  0  0  0  0  0  0  0  0  0
   16.8714   24.5257   27.0015 C   0  0  0  0  0  0  0  0  0  0  0  0
  1  2  2  0
  2  3  1  0
  2  4  1  0
  4  5  1  0
  5  6  2  0
  6  7  1  0
  7  8  2  0
  8  9  1  0
  9 10  2  0
  9 11  2  0
  9 12  1  0
  8 13  1  0
 13 14  2  0
 14  5  1  0
M  END
>  <placement_batch>  (103) 
CpKRS_FrAncestor_bulkdock_iter2_cluster_best5

>  <name>  (103) 
KGJGWDQUGUEMIW-UHFFFAOYSA-N-P27

>  <HIPPO Pose ID>  (103) 
56602

>  <inchikey>  (103) 
KGJGWDQUGUEMIW-UHFFFAOYSA-N

>  <inspiration_score>  (103) 
0.711

>  <tags>  (103) 
CpKRS_FrAncestor_bulkdock_iter2,CpKRS_FrAncestor_bulkdock_iter2_cluster_best5,BulkDock Fragalysis export,fragmenstein_placed,CpKRS_FrAncestor_bulkdock_iter2_exported

>  <distance_score>  (103) 
0.728688

>  <ref_pdb>  (103) 
x0485c

>  <alias>  (103) 
KGJGWDQUGUEMIW-UHFFFAOYSA-N-P27

>  <subsites>  (103) 


>  <smiles>  (103) 
O=C(O)Cc1ccc(S(=O)(=O)O)cc1

>  <HIPPO Compound ID>  (103) 
34500

>  <ref_mols>  (103) 
x0483a

>  <energy_score>  (103) 
-31.828228

$$$$
XTJCQTJBNFESRV-UHFFFAOYSA-N-P32
     RDKit          3D

 18 18  0  0  0  0  0  0  0  0999 V2000
    5.4168  -23.6160   21.5200 O   0  0  0  0  0  0  0  0  0  0  0  0
    5.0869  -23.0196   20.2871 N   0  0  0  0  0  0  0  0  0  0  0  0
    5.7631  -21.8553   19.8813 O   0  0  0  0  0  0  0  0  0  0  0  0
    4.2052  -23.7392   19.4124 C   0  0  0  0  0  0  0  0  0  0  0  0
    4.1948  -23.4685   18.0504 C   0  0  0  0  0  0  0  0  0  0  0  0
    3.3803  -24.2307   17.2172 C   0  0  0  0  0  0  0  0  0  0  0  0
    2.5628  -25.2509   17.7331 C   0  0  0  0  0  0  0  0  0  0  0  0
    1.6625  -26.0542   16.8296 C   0  0  0  0  0  0  0  0  0  0  0  0
    0.8448  -25.2212   15.9502 N   0  0  0  0  0  0  0  0  0  0  0  0
    1.2556  -25.1029   14.3373 S   0  0  0  0  0  0  0  0  0  0  0  0
    2.6464  -25.4621   14.1736 O   0  0  0  0  0  0  0  0  0  0  0  0
    0.7132  -23.8459   13.8797 O   0  0  0  0  0  0  0  0  0  0  0  0
    0.2593  -26.3902   13.6156 C   0  0  0  0  0  0  0  0  0  0  0  0
    0.5991  -26.6888   12.1546 C   0  0  0  0  0  0  0  0  0  0  0  0
    0.3967  -25.5248   11.1835 C   0  0  0  0  0  0  0  0  0  0  0  0
    1.9050  -24.6176   10.8958 Cl  0  0  0  0  0  0  0  0  0  0  0  0
    2.6015  -25.5206   19.1068 C   0  0  0  0  0  0  0  0  0  0  0  0
    3.4175  -24.7662   19.9463 C   0  0  0  0  0  0  0  0  0  0  0  0
  1  2  2  0
  2  3  1  0
  2  4  1  0
  4  5  2  0
  5  6  1  0
  6  7  2  0
  7  8  1  0
  8  9  1  0
  9 10  1  0
 10 11  2  0
 10 12  2  0
 10 13  1  0
 13 14  1  0
 14 15  1  0
 15 16  1  0
  7 17  1  0
 17 18  2  0
 18  4  1  0
M  CHG  1   2   1
M  END
>  <placement_batch>  (104) 
CpKRS_FrAncestor_bulkdock_iter2_cluster_best5

>  <name>  (104) 
XTJCQTJBNFESRV-UHFFFAOYSA-N-P32

>  <HIPPO Pose ID>  (104) 
56603

>  <inchikey>  (104) 
XTJCQTJBNFESRV-UHFFFAOYSA-N

>  <inspiration_score>  (104) 
0.802

>  <tags>  (104) 
CpKRS_FrAncestor_bulkdock_iter2,CpKRS_FrAncestor_bulkdock_iter2_cluster_best5,BulkDock Fragalysis export,fragmenstein_placed,CpKRS_FrAncestor_bulkdock_iter2_exported

>  <distance_score>  (104) 
0.436983

>  <ref_pdb>  (104) 
x0485c

>  <alias>  (104) 
XTJCQTJBNFESRV-UHFFFAOYSA-N-P32

>  <subsites>  (104) 


>  <smiles>  (104) 
O=[N+](O)c1ccc(CNS(=O)(=O)CCCCl)cc1

>  <HIPPO Compound ID>  (104) 
34501

>  <ref_mols>  (104) 
x0487a

>  <energy_score>  (104) 
-51.787592

$$$$
TXAFIGZHASGILY-UHFFFAOYSA-N-P33
     RDKit          3D

 15 16  0  0  0  0  0  0  0  0999 V2000
    3.6245   -8.6285   24.8794 O   0  0  0  0  0  0  0  0  0  0  0  0
    4.2368   -9.3953   24.1538 C   0  0  0  0  0  0  0  0  0  0  0  0
    5.5129   -9.1148   23.8130 O   0  0  0  0  0  0  0  0  0  0  0  0
    3.7369  -10.6609   23.4829 C   0  0  0  0  0  0  0  0  0  0  0  0
    2.2979  -11.0211   23.8856 C   0  0  0  0  0  0  0  0  0  0  0  0
    2.2322  -11.9547   25.0929 C   0  0  0  0  0  0  0  0  0  0  0  0
    3.0340  -13.1572   24.8777 N   0  0  0  0  0  0  0  0  0  0  0  0
    3.2695  -14.0174   25.9507 C   0  0  0  0  0  0  0  0  0  0  0  0
    2.3092  -14.2556   26.9512 C   0  0  0  0  0  0  0  0  0  0  0  0
    2.4490  -15.1225   27.9978 N   0  0  0  0  0  0  0  0  0  0  0  0
    3.6226  -15.7843   27.9926 C   0  0  0  0  0  0  0  0  0  0  0  0
    4.5930  -15.5659   27.0333 C   0  0  0  0  0  0  0  0  0  0  0  0
    4.4450  -14.6808   26.0246 N   0  0  0  0  0  0  0  0  0  0  0  0
    4.0074  -13.1597   23.7857 C   0  0  0  0  0  0  0  0  0  0  0  0
    4.7181  -11.8181   23.7171 C   0  0  0  0  0  0  0  0  0  0  0  0
  1  2  2  0
  2  3  1  0
  2  4  1  0
  4  5  1  0
  5  6  1  0
  6  7  1  0
  7  8  1  0
  8  9  2  0
  9 10  1  0
 10 11  2  0
 11 12  1  0
 12 13  2  0
  7 14  1  0
 14 15  1  0
 15  4  1  0
 13  8  1  0
M  END
>  <placement_batch>  (105) 
CpKRS_FrAncestor_bulkdock_iter2_cluster_best5

>  <name>  (105) 
TXAFIGZHASGILY-UHFFFAOYSA-N-P33

>  <HIPPO Pose ID>  (105) 
56664

>  <inchikey>  (105) 
TXAFIGZHASGILY-UHFFFAOYSA-N

>  <inspiration_score>  (105) 
0.817

>  <tags>  (105) 
CpKRS_FrAncestor_bulkdock_iter2,CpKRS_FrAncestor_bulkdock_iter2_cluster_best5,BulkDock Fragalysis export,fragmenstein_placed,CpKRS_FrAncestor_bulkdock_iter2_exported

>  <distance_score>  (105) 
0.523663

>  <ref_pdb>  (105) 
x0485c

>  <alias>  (105) 
TXAFIGZHASGILY-UHFFFAOYSA-N-P33

>  <subsites>  (105) 


>  <smiles>  (105) 
O=C(O)C1CCN(c2cnccn2)CC1

>  <HIPPO Compound ID>  (105) 
34522

>  <ref_mols>  (105) 
x0489a

>  <energy_score>  (105) 
-31.541792

$$$$
YWAQPCXYZOOVDL-UHFFFAOYSA-N-P30
     RDKit          3D

 17 18  0  0  0  0  0  0  0  0999 V2000
    4.7182  -12.2434   22.1595 C   0  0  0  0  0  0  0  0  0  0  0  0
    4.9380  -10.9263   22.8330 C   0  0  0  0  0  0  0  0  0  0  0  0
    5.4006   -9.8550   22.0625 C   0  0  0  0  0  0  0  0  0  0  0  0
    5.6123   -8.6201   22.6492 C   0  0  0  0  0  0  0  0  0  0  0  0
    5.3431   -8.4931   23.9961 C   0  0  0  0  0  0  0  0  0  0  0  0
    5.8180   -6.8842   24.8588 Br  0  0  0  0  0  0  0  0  0  0  0  0
    4.7979   -9.4685   24.7467 N   0  0  0  0  0  0  0  0  0  0  0  0
    4.6684  -10.6835   24.1779 C   0  0  0  0  0  0  0  0  0  0  0  0
    4.1775  -11.6530   25.0264 N   0  0  0  0  0  0  0  0  0  0  0  0
    4.5636  -13.1379   25.1807 C   0  0  0  0  0  0  0  0  0  0  0  0
    5.3026  -13.7941   24.5636 O   0  0  0  0  0  0  0  0  0  0  0  0
    3.7608  -13.8110   26.2430 C   0  0  0  0  0  0  0  0  0  0  0  0
    4.3262  -14.8886   26.9213 C   0  0  0  0  0  0  0  0  0  0  0  0
    3.5608  -15.5259   27.8786 C   0  0  0  0  0  0  0  0  0  0  0  0
    2.2956  -15.1708   28.1964 N   0  0  0  0  0  0  0  0  0  0  0  0
    1.7689  -14.1513   27.4888 C   0  0  0  0  0  0  0  0  0  0  0  0
    2.4410  -13.4501   26.5073 C   0  0  0  0  0  0  0  0  0  0  0  0
  1  2  1  0
  2  3  2  0
  3  4  1  0
  4  5  2  0
  5  6  1  0
  5  7  1  0
  7  8  2  0
  8  9  1  0
  9 10  1  0
 10 11  2  0
 10 12  1  0
 12 13  2  0
 13 14  1  0
 14 15  2  0
 15 16  1  0
 16 17  2  0
  8  2  1  0
 17 12  1  0
M  END
>  <placement_batch>  (106) 
CpKRS_FrAncestor_bulkdock_iter2_cluster_best5

>  <name>  (106) 
YWAQPCXYZOOVDL-UHFFFAOYSA-N-P30

>  <HIPPO Pose ID>  (106) 
56882

>  <inchikey>  (106) 
YWAQPCXYZOOVDL-UHFFFAOYSA-N

>  <inspiration_score>  (106) 
0.935

>  <tags>  (106) 
CpKRS_FrAncestor_bulkdock_iter2,CpKRS_FrAncestor_bulkdock_iter2_cluster_best5,BulkDock Fragalysis export,fragmenstein_placed,CpKRS_FrAncestor_bulkdock_iter2_exported

>  <distance_score>  (106) 
0.321849

>  <ref_pdb>  (106) 
x0485c

>  <alias>  (106) 
YWAQPCXYZOOVDL-UHFFFAOYSA-N-P30

>  <subsites>  (106) 


>  <smiles>  (106) 
Cc1ccc(Br)nc1NC(=O)c1ccncc1

>  <HIPPO Compound ID>  (106) 
34616

>  <ref_mols>  (106) 
x0485a

>  <energy_score>  (106) 
-12.079046

$$$$
NZECTOPNGLZWPF-UHFFFAOYSA-N-P11
     RDKit          3D

 16 17  0  0  0  0  0  0  0  0999 V2000
    4.6576   -8.5961   25.0535 C   0  0  0  0  0  0  0  0  0  0  0  0
    4.9741   -9.6896   24.0474 C   0  0  2  0  0  0  0  0  0  0  0  0
    5.5751   -9.0723   22.7744 C   0  0  0  0  0  0  0  0  0  0  0  0
    5.1888  -10.0007   21.6316 C   0  0  0  0  0  0  0  0  0  0  0  0
    4.4019  -11.1398   22.2628 C   0  0  0  0  0  0  0  0  0  0  0  0
    3.7843  -10.5341   23.5342 C   0  0  2  0  0  0  0  0  0  0  0  0
    2.5534   -9.6800   23.1964 C   0  0  0  0  0  0  0  0  0  0  0  0
    3.3418  -11.5775   24.4331 N   0  0  0  0  0  0  0  0  0  0  0  0
    4.0794  -12.8262   24.9600 C   0  0  0  0  0  0  0  0  0  0  0  0
    5.1847  -13.1693   24.8134 O   0  0  0  0  0  0  0  0  0  0  0  0
    3.1110  -13.6231   25.7487 C   0  0  0  0  0  0  0  0  0  0  0  0
    1.7990  -13.2837   25.7770 N   0  0  0  0  0  0  0  0  0  0  0  0
    1.1728  -14.2345   26.5649 O   0  0  0  0  0  0  0  0  0  0  0  0
    2.0911  -15.1173   27.0236 C   0  0  0  0  0  0  0  0  0  0  0  0
    3.3231  -14.7571   26.5602 C   0  0  0  0  0  0  0  0  0  0  0  0
    4.9402  -15.5849   26.9650 Br  0  0  0  0  0  0  0  0  0  0  0  0
  2  1  1  1
  2  3  1  0
  3  4  1  0
  4  5  1  0
  5  6  1  0
  6  7  1  6
  6  8  1  0
  8  9  1  0
  9 10  2  0
  9 11  1  0
 11 12  2  0
 12 13  1  0
 13 14  1  0
 14 15  2  0
 15 16  1  0
  6  2  1  0
 15 11  1  0
M  END
>  <placement_batch>  (107) 
CpKRS_FrAncestor_bulkdock_iter2_cluster_best5

>  <name>  (107) 
NZECTOPNGLZWPF-UHFFFAOYSA-N-P11

>  <HIPPO Pose ID>  (107) 
56990

>  <inchikey>  (107) 
NZECTOPNGLZWPF-UHFFFAOYSA-N

>  <inspiration_score>  (107) 
0.83

>  <tags>  (107) 
CpKRS_FrAncestor_bulkdock_iter2,CpKRS_FrAncestor_bulkdock_iter2_cluster_best5,BulkDock Fragalysis export,fragmenstein_placed,CpKRS_FrAncestor_bulkdock_iter2_exported

>  <distance_score>  (107) 
0.460087

>  <ref_pdb>  (107) 
x0485c

>  <alias>  (107) 
NZECTOPNGLZWPF-UHFFFAOYSA-N-P11

>  <subsites>  (107) 


>  <smiles>  (107) 
CC1CCCC1(C)NC(=O)c1nocc1Br

>  <HIPPO Compound ID>  (107) 
34652

>  <ref_mols>  (107) 
x0421a

>  <energy_score>  (107) 
-40.429668

$$$$
QALSZJRYPGTBHS-UHFFFAOYSA-N-P11
     RDKit          3D

 16 17  0  0  0  0  0  0  0  0999 V2000
    4.6673   -8.6043   25.0403 C   0  0  0  0  0  0  0  0  0  0  0  0
    4.9908   -9.7004   24.0385 C   0  0  2  0  0  0  0  0  0  0  0  0
    5.5623   -9.0770   22.7545 C   0  0  0  0  0  0  0  0  0  0  0  0
    5.1660  -10.0077   21.6178 C   0  0  0  0  0  0  0  0  0  0  0  0
    4.4170  -11.1641   22.2625 C   0  0  0  0  0  0  0  0  0  0  0  0
    3.8116  -10.5743   23.5474 C   0  0  2  0  0  0  0  0  0  0  0  0
    2.5537   -9.7492   23.2342 C   0  0  0  0  0  0  0  0  0  0  0  0
    3.4127  -11.6325   24.4522 N   0  0  0  0  0  0  0  0  0  0  0  0
    4.1959  -12.8589   24.9690 C   0  0  0  0  0  0  0  0  0  0  0  0
    5.3096  -13.1675   24.8080 O   0  0  0  0  0  0  0  0  0  0  0  0
    3.2677  -13.6896   25.7690 C   0  0  0  0  0  0  0  0  0  0  0  0
    1.9480  -13.3891   25.8276 N   0  0  0  0  0  0  0  0  0  0  0  0
    1.3701  -14.3694   26.6139 O   0  0  0  0  0  0  0  0  0  0  0  0
    2.3254  -15.2276   27.0401 C   0  0  0  0  0  0  0  0  0  0  0  0
    3.5455  -14.8293   26.5641 C   0  0  0  0  0  0  0  0  0  0  0  0
    5.0418  -15.5468   26.8933 Cl  0  0  0  0  0  0  0  0  0  0  0  0
  2  1  1  1
  2  3  1  0
  3  4  1  0
  4  5  1  0
  5  6  1  0
  6  7  1  6
  6  8  1  0
  8  9  1  0
  9 10  2  0
  9 11  1  0
 11 12  2  0
 12 13  1  0
 13 14  1  0
 14 15  2  0
 15 16  1  0
  6  2  1  0
 15 11  1  0
M  END
>  <placement_batch>  (108) 
CpKRS_FrAncestor_bulkdock_iter2_cluster_best5

>  <name>  (108) 
QALSZJRYPGTBHS-UHFFFAOYSA-N-P11

>  <HIPPO Pose ID>  (108) 
56994

>  <inchikey>  (108) 
QALSZJRYPGTBHS-UHFFFAOYSA-N

>  <inspiration_score>  (108) 
0.834

>  <tags>  (108) 
CpKRS_FrAncestor_bulkdock_iter2,CpKRS_FrAncestor_bulkdock_iter2_cluster_best5,BulkDock Fragalysis export,fragmenstein_placed,CpKRS_FrAncestor_bulkdock_iter2_exported

>  <distance_score>  (108) 
0.429898

>  <ref_pdb>  (108) 
x0485c

>  <alias>  (108) 
QALSZJRYPGTBHS-UHFFFAOYSA-N-P11

>  <subsites>  (108) 


>  <smiles>  (108) 
CC1CCCC1(C)NC(=O)c1nocc1Cl

>  <HIPPO Compound ID>  (108) 
34653

>  <ref_mols>  (108) 
x0421a

>  <energy_score>  (108) 
-42.357175

$$$$
CCQLPTBUFXIORY-UHFFFAOYSA-N-P14
     RDKit          3D

 15 16  0  0  0  0  0  0  0  0999 V2000
    3.2518   -9.1599   24.1997 C   0  0  0  0  0  0  0  0  0  0  0  0
    4.7098   -9.5301   23.9251 C   0  0  2  0  0  0  0  0  0  0  0  0
    5.2777   -8.7160   22.7603 C   0  0  0  0  0  0  0  0  0  0  0  0
    5.1241   -9.5902   21.5145 C   0  0  0  0  0  0  0  0  0  0  0  0
    4.5732  -10.9342   21.9796 C   0  0  0  0  0  0  0  0  0  0  0  0
    4.9160  -10.9758   23.4546 C   0  0  2  0  0  0  0  0  0  0  0  0
    4.1736  -11.9388   24.2026 N   0  0  0  0  0  0  0  0  0  0  0  0
    4.6446  -13.1683   24.9890 C   0  0  0  0  0  0  0  0  0  0  0  0
    5.7043  -13.6385   25.0907 O   0  0  0  0  0  0  0  0  0  0  0  0
    3.4899  -13.6684   25.7500 C   0  0  0  0  0  0  0  0  0  0  0  0
    3.5635  -14.6469   26.7274 C   0  0  0  0  0  0  0  0  0  0  0  0
    2.0326  -14.8515   27.4677 S   0  0  0  0  0  0  0  0  0  0  0  0
    1.3908  -13.6881   26.4035 C   0  0  0  0  0  0  0  0  0  0  0  0
   -0.4748  -13.2681   26.3335 Br  0  0  0  0  0  0  0  0  0  0  0  0
    2.2218  -13.0919   25.5897 N   0  0  0  0  0  0  0  0  0  0  0  0
  2  1  1  6
  2  3  1  0
  3  4  1  0
  4  5  1  0
  5  6  1  0
  6  7  1  1
  7  8  1  0
  8  9  2  0
  8 10  1  0
 10 11  2  0
 11 12  1  0
 12 13  1  0
 13 14  1  0
 13 15  2  0
  6  2  1  0
 15 10  1  0
M  END
>  <placement_batch>  (109) 
CpKRS_FrAncestor_bulkdock_iter2_cluster_best5

>  <name>  (109) 
CCQLPTBUFXIORY-UHFFFAOYSA-N-P14

>  <HIPPO Pose ID>  (109) 
57106

>  <inchikey>  (109) 
CCQLPTBUFXIORY-UHFFFAOYSA-N

>  <inspiration_score>  (109) 
0.8

>  <tags>  (109) 
CpKRS_FrAncestor_bulkdock_iter2,CpKRS_FrAncestor_bulkdock_iter2_cluster_best5,BulkDock Fragalysis export,fragmenstein_placed,CpKRS_FrAncestor_bulkdock_iter2_exported

>  <distance_score>  (109) 
0.362624

>  <ref_pdb>  (109) 
x0485c

>  <alias>  (109) 
CCQLPTBUFXIORY-UHFFFAOYSA-N-P14

>  <subsites>  (109) 


>  <smiles>  (109) 
CC1CCCC1NC(=O)c1csc(Br)n1

>  <HIPPO Compound ID>  (109) 
34683

>  <ref_mols>  (109) 
x0421d

>  <energy_score>  (109) 
-71.684974

$$$$
WPOJZVDWXGKTCD-UHFFFAOYSA-N-P12
     RDKit          3D

 15 16  0  0  0  0  0  0  0  0999 V2000
    3.7429   -8.9522   24.4742 C   0  0  0  0  0  0  0  0  0  0  0  0
    5.0659   -9.5132   23.9657 C   0  0  2  0  0  0  0  0  0  0  0  0
    5.5650   -8.7201   22.7618 C   0  0  0  0  0  0  0  0  0  0  0  0
    4.8104   -9.3088   21.5749 C   0  0  0  0  0  0  0  0  0  0  0  0
    4.3606  -10.7101   21.9913 C   0  0  0  0  0  0  0  0  0  0  0  0
    4.9531  -10.9215   23.3730 C   0  0  2  0  0  0  0  0  0  0  0  0
    4.2312  -11.8574   24.1777 N   0  0  0  0  0  0  0  0  0  0  0  0
    4.6927  -13.1541   24.8543 C   0  0  0  0  0  0  0  0  0  0  0  0
    5.7518  -13.6298   24.9300 O   0  0  0  0  0  0  0  0  0  0  0  0
    3.5383  -13.7387   25.5525 C   0  0  0  0  0  0  0  0  0  0  0  0
    3.6405  -14.7823   26.4570 C   0  0  0  0  0  0  0  0  0  0  0  0
    2.1214  -15.0751   27.1819 S   0  0  0  0  0  0  0  0  0  0  0  0
    1.4455  -13.8606   26.2082 C   0  0  0  0  0  0  0  0  0  0  0  0
   -0.2382  -13.5455   26.2904 Cl  0  0  0  0  0  0  0  0  0  0  0  0
    2.2463  -13.2200   25.3925 N   0  0  0  0  0  0  0  0  0  0  0  0
  2  1  1  6
  2  3  1  0
  3  4  1  0
  4  5  1  0
  5  6  1  0
  6  7  1  1
  7  8  1  0
  8  9  2  0
  8 10  1  0
 10 11  2  0
 11 12  1  0
 12 13  1  0
 13 14  1  0
 13 15  2  0
  6  2  1  0
 15 10  1  0
M  END
>  <placement_batch>  (110) 
CpKRS_FrAncestor_bulkdock_iter2_cluster_best5

>  <name>  (110) 
WPOJZVDWXGKTCD-UHFFFAOYSA-N-P12

>  <HIPPO Pose ID>  (110) 
57108

>  <inchikey>  (110) 
WPOJZVDWXGKTCD-UHFFFAOYSA-N

>  <inspiration_score>  (110) 
0.791

>  <tags>  (110) 
CpKRS_FrAncestor_bulkdock_iter2,CpKRS_FrAncestor_bulkdock_iter2_cluster_best5,BulkDock Fragalysis export,fragmenstein_placed,CpKRS_FrAncestor_bulkdock_iter2_exported

>  <distance_score>  (110) 
0.395313

>  <ref_pdb>  (110) 
x0485c

>  <alias>  (110) 
WPOJZVDWXGKTCD-UHFFFAOYSA-N-P12

>  <subsites>  (110) 


>  <smiles>  (110) 
CC1CCCC1NC(=O)c1csc(Cl)n1

>  <HIPPO Compound ID>  (110) 
34684

>  <ref_mols>  (110) 
x0421b

>  <energy_score>  (110) 
-74.650587

$$$$
ZXMFSVBTTSCQRN-UHFFFAOYSA-N-P14
     RDKit          3D

 15 16  0  0  0  0  0  0  0  0999 V2000
    3.9329  -11.7744   21.9166 C   0  0  0  0  0  0  0  0  0  0  0  0
    5.0802  -10.9435   22.4393 C   0  0  1  0  0  0  0  0  0  0  0  0
    5.2373   -9.6156   21.6826 C   0  0  0  0  0  0  0  0  0  0  0  0
    5.1819   -8.5191   22.7397 C   0  0  0  0  0  0  0  0  0  0  0  0
    4.3705   -9.1348   23.8669 C   0  0  0  0  0  0  0  0  0  0  0  0
    4.9064  -10.5561   23.9009 C   0  0  1  0  0  0  0  0  0  0  0  0
    4.1032  -11.4798   24.6423 N   0  0  0  0  0  0  0  0  0  0  0  0
    4.3866  -12.9303   25.0716 C   0  0  0  0  0  0  0  0  0  0  0  0
    5.3479  -13.5771   24.9567 O   0  0  0  0  0  0  0  0  0  0  0  0
    3.1968  -13.4089   25.8072 C   0  0  0  0  0  0  0  0  0  0  0  0
    1.9799  -12.6849   25.7551 N   0  0  0  0  0  0  0  0  0  0  0  0
    1.0930  -13.2833   26.5176 C   0  0  0  0  0  0  0  0  0  0  0  0
    1.6458  -14.6143   27.4329 S   0  0  0  0  0  0  0  0  0  0  0  0
    3.1581  -14.4866   26.6692 C   0  0  0  0  0  0  0  0  0  0  0  0
    4.5600  -15.7096   27.0691 Br  0  0  0  0  0  0  0  0  0  0  0  0
  2  1  1  6
  2  3  1  0
  3  4  1  0
  4  5  1  0
  5  6  1  0
  6  7  1  6
  7  8  1  0
  8  9  2  0
  8 10  1  0
 10 11  1  0
 11 12  2  0
 12 13  1  0
 13 14  1  0
 14 15  1  0
  6  2  1  0
 14 10  2  0
M  END
>  <placement_batch>  (111) 
CpKRS_FrAncestor_bulkdock_iter2_cluster_best5

>  <name>  (111) 
ZXMFSVBTTSCQRN-UHFFFAOYSA-N-P14

>  <HIPPO Pose ID>  (111) 
57138

>  <inchikey>  (111) 
ZXMFSVBTTSCQRN-UHFFFAOYSA-N

>  <inspiration_score>  (111) 
0.915

>  <tags>  (111) 
CpKRS_FrAncestor_bulkdock_iter2,CpKRS_FrAncestor_bulkdock_iter2_cluster_best5,BulkDock Fragalysis export,fragmenstein_placed,CpKRS_FrAncestor_bulkdock_iter2_exported

>  <distance_score>  (111) 
0.472559

>  <ref_pdb>  (111) 
x0485c

>  <alias>  (111) 
ZXMFSVBTTSCQRN-UHFFFAOYSA-N-P14

>  <subsites>  (111) 


>  <smiles>  (111) 
CC1CCCC1NC(=O)c1ncsc1Br

>  <HIPPO Compound ID>  (111) 
34691

>  <ref_mols>  (111) 
x0421d

>  <energy_score>  (111) 
-51.340196

$$$$
PGSZAPTXRMRLGW-UHFFFAOYSA-N-P14
     RDKit          3D

 15 16  0  0  0  0  0  0  0  0999 V2000
    3.8515  -11.8019   21.9601 C   0  0  0  0  0  0  0  0  0  0  0  0
    5.0548  -11.0212   22.4368 C   0  0  1  0  0  0  0  0  0  0  0  0
    5.2217   -9.6868   21.6926 C   0  0  0  0  0  0  0  0  0  0  0  0
    5.1792   -8.5968   22.7582 C   0  0  0  0  0  0  0  0  0  0  0  0
    4.4101   -9.2259   23.9074 C   0  0  0  0  0  0  0  0  0  0  0  0
    4.9460  -10.6485   23.9077 C   0  0  1  0  0  0  0  0  0  0  0  0
    4.1666  -11.5789   24.6677 N   0  0  0  0  0  0  0  0  0  0  0  0
    4.4768  -13.0222   25.1024 C   0  0  0  0  0  0  0  0  0  0  0  0
    5.4454  -13.6562   24.9774 O   0  0  0  0  0  0  0  0  0  0  0  0
    3.3102  -13.5157   25.8583 C   0  0  0  0  0  0  0  0  0  0  0  0
    2.0829  -12.8084   25.8531 N   0  0  0  0  0  0  0  0  0  0  0  0
    1.2344  -13.4258   26.6449 C   0  0  0  0  0  0  0  0  0  0  0  0
    1.8325  -14.7765   27.5077 S   0  0  0  0  0  0  0  0  0  0  0  0
    3.3166  -14.6055   26.7026 C   0  0  0  0  0  0  0  0  0  0  0  0
    4.5660  -15.7228   27.0576 Cl  0  0  0  0  0  0  0  0  0  0  0  0
  2  1  1  6
  2  3  1  0
  3  4  1  0
  4  5  1  0
  5  6  1  0
  6  7  1  1
  7  8  1  0
  8  9  2  0
  8 10  1  0
 10 11  1  0
 11 12  2  0
 12 13  1  0
 13 14  1  0
 14 15  1  0
  6  2  1  0
 14 10  2  0
M  END
>  <placement_batch>  (112) 
CpKRS_FrAncestor_bulkdock_iter2_cluster_best5

>  <name>  (112) 
PGSZAPTXRMRLGW-UHFFFAOYSA-N-P14

>  <HIPPO Pose ID>  (112) 
57142

>  <inchikey>  (112) 
PGSZAPTXRMRLGW-UHFFFAOYSA-N

>  <inspiration_score>  (112) 
0.908

>  <tags>  (112) 
CpKRS_FrAncestor_bulkdock_iter2,CpKRS_FrAncestor_bulkdock_iter2_cluster_best5,BulkDock Fragalysis export,fragmenstein_placed,CpKRS_FrAncestor_bulkdock_iter2_exported

>  <distance_score>  (112) 
0.42903

>  <ref_pdb>  (112) 
x0485c

>  <alias>  (112) 
PGSZAPTXRMRLGW-UHFFFAOYSA-N-P14

>  <subsites>  (112) 


>  <smiles>  (112) 
CC1CCCC1NC(=O)c1ncsc1Cl

>  <HIPPO Compound ID>  (112) 
34692

>  <ref_mols>  (112) 
x0421d

>  <energy_score>  (112) 
-54.118698

$$$$
IOCLKNMDKRMUQJ-UHFFFAOYSA-N-P13
     RDKit          3D

 16 17  0  0  0  0  0  0  0  0999 V2000
    3.1884   -9.0868   24.4591 C   0  0  0  0  0  0  0  0  0  0  0  0
    4.7068   -9.2573   24.4374 C   0  0  2  0  0  0  0  0  0  0  0  0
    5.3687   -8.3982   23.3555 C   0  0  0  0  0  0  0  0  0  0  0  0
    5.1732   -9.2121   22.0851 C   0  0  0  0  0  0  0  0  0  0  0  0
    5.4086  -10.6529   22.5420 C   0  0  2  0  0  0  0  0  0  0  0  0
    4.6211  -11.6775   21.7700 C   0  0  0  0  0  0  0  0  0  0  0  0
    5.1856  -10.6677   24.0607 C   0  0  2  0  0  0  0  0  0  0  0  0
    4.3994  -11.7648   24.5550 N   0  0  0  0  0  0  0  0  0  0  0  0
    4.8116  -13.1911   24.9442 C   0  0  0  0  0  0  0  0  0  0  0  0
    5.8386  -13.7303   24.8549 O   0  0  0  0  0  0  0  0  0  0  0  0
    3.6660  -13.8447   25.5990 C   0  0  0  0  0  0  0  0  0  0  0  0
    3.7753  -15.0304   26.3085 C   0  0  0  0  0  0  0  0  0  0  0  0
    2.2809  -15.4126   27.0442 S   0  0  0  0  0  0  0  0  0  0  0  0
    1.6033  -14.0369   26.3232 C   0  0  0  0  0  0  0  0  0  0  0  0
   -0.0621  -13.6904   26.5579 Cl  0  0  0  0  0  0  0  0  0  0  0  0
    2.3846  -13.2724   25.6040 N   0  0  0  0  0  0  0  0  0  0  0  0
  2  1  1  6
  2  3  1  0
  3  4  1  0
  4  5  1  0
  5  6  1  6
  5  7  1  0
  7  8  1  6
  8  9  1  0
  9 10  2  0
  9 11  1  0
 11 12  2  0
 12 13  1  0
 13 14  1  0
 14 15  1  0
 14 16  2  0
  7  2  1  0
 16 11  1  0
M  END
>  <placement_batch>  (113) 
CpKRS_FrAncestor_bulkdock_iter2_cluster_best5

>  <name>  (113) 
IOCLKNMDKRMUQJ-UHFFFAOYSA-N-P13

>  <HIPPO Pose ID>  (113) 
57303

>  <inchikey>  (113) 
IOCLKNMDKRMUQJ-UHFFFAOYSA-N

>  <inspiration_score>  (113) 
0.821

>  <tags>  (113) 
CpKRS_FrAncestor_bulkdock_iter2,CpKRS_FrAncestor_bulkdock_iter2_cluster_best5,BulkDock Fragalysis export,fragmenstein_placed,CpKRS_FrAncestor_bulkdock_iter2_exported

>  <distance_score>  (113) 
0.403573

>  <ref_pdb>  (113) 
x0485c

>  <alias>  (113) 
IOCLKNMDKRMUQJ-UHFFFAOYSA-N-P13

>  <subsites>  (113) 


>  <smiles>  (113) 
CC1CCC(C)C1NC(=O)c1csc(Cl)n1

>  <HIPPO Compound ID>  (113) 
34737

>  <ref_mols>  (113) 
x0421c

>  <energy_score>  (113) 
-83.108147

$$$$
KJRJAVQDUISZEW-UHFFFAOYSA-N-P12
     RDKit          3D

 16 17  0  0  0  0  0  0  0  0999 V2000
    4.8425  -11.6861   21.8845 C   0  0  0  0  0  0  0  0  0  0  0  0
    4.0066  -10.4690   22.2495 C   0  0  2  0  0  0  0  0  0  0  0  0
    4.6410   -9.1969   21.7015 C   0  0  0  0  0  0  0  0  0  0  0  0
    5.7077   -8.8354   22.7230 C   0  0  0  0  0  0  0  0  0  0  0  0
    5.2549   -9.4529   24.0636 C   0  0  1  0  0  0  0  0  0  0  0  0
    5.1283   -8.3575   25.1144 C   0  0  0  0  0  0  0  0  0  0  0  0
    3.9193  -10.1515   23.7436 C   0  0  0  0  0  0  0  0  0  0  0  0
    3.5163  -11.2750   24.5460 N   0  0  0  0  0  0  0  0  0  0  0  0
    4.2550  -12.5893   24.8730 C   0  0  0  0  0  0  0  0  0  0  0  0
    5.3359  -12.9345   24.6070 O   0  0  0  0  0  0  0  0  0  0  0  0
    3.3189  -13.4255   25.6458 C   0  0  0  0  0  0  0  0  0  0  0  0
    1.9725  -13.0261   25.7623 N   0  0  0  0  0  0  0  0  0  0  0  0
    1.3375  -13.8441   26.5709 C   0  0  0  0  0  0  0  0  0  0  0  0
    2.2548  -15.1513   27.1854 S   0  0  0  0  0  0  0  0  0  0  0  0
    3.6094  -14.5863   26.3287 C   0  0  0  0  0  0  0  0  0  0  0  0
    5.0768  -15.4620   26.4651 Cl  0  0  0  0  0  0  0  0  0  0  0  0
  2  1  1  1
  2  3  1  0
  3  4  1  0
  4  5  1  0
  5  6  1  1
  5  7  1  0
  7  8  1  0
  8  9  1  0
  9 10  2  0
  9 11  1  0
 11 12  1  0
 12 13  2  0
 13 14  1  0
 14 15  1  0
 15 16  1  0
  7  2  1  0
 15 11  2  0
M  END
>  <placement_batch>  (114) 
CpKRS_FrAncestor_bulkdock_iter2_cluster_best5

>  <name>  (114) 
KJRJAVQDUISZEW-UHFFFAOYSA-N-P12

>  <HIPPO Pose ID>  (114) 
57314

>  <inchikey>  (114) 
KJRJAVQDUISZEW-UHFFFAOYSA-N

>  <inspiration_score>  (114) 
0.87

>  <tags>  (114) 
CpKRS_FrAncestor_bulkdock_iter2,CpKRS_FrAncestor_bulkdock_iter2_cluster_best5,BulkDock Fragalysis export,fragmenstein_placed,CpKRS_FrAncestor_bulkdock_iter2_exported

>  <distance_score>  (114) 
0.562294

>  <ref_pdb>  (114) 
x0485c

>  <alias>  (114) 
KJRJAVQDUISZEW-UHFFFAOYSA-N-P12

>  <subsites>  (114) 


>  <smiles>  (114) 
CC1CCC(C)C1NC(=O)c1ncsc1Cl

>  <HIPPO Compound ID>  (114) 
34740

>  <ref_mols>  (114) 
x0421b

>  <energy_score>  (114) 
-90.517207

$$$$
HFFICEUONYFJJN-UHFFFAOYSA-N-P12
     RDKit          3D

 16 17  0  0  0  0  0  0  0  0999 V2000
    6.0306   -8.8211   24.9190 C   0  0  0  0  0  0  0  0  0  0  0  0
    5.0255   -9.2642   23.8565 C   0  0  0  0  0  0  0  0  0  0  0  0
    3.6300   -8.8354   24.3137 C   0  0  0  0  0  0  0  0  0  0  0  0
    5.4281   -8.6200   22.5228 C   0  0  0  0  0  0  0  0  0  0  0  0
    4.6908   -9.4375   21.4881 C   0  0  0  0  0  0  0  0  0  0  0  0
    4.6894  -10.8633   22.0178 C   0  0  0  0  0  0  0  0  0  0  0  0
    5.0781  -10.7661   23.4967 C   0  0  2  0  0  0  0  0  0  0  0  0
    4.2626  -11.6425   24.2860 N   0  0  0  0  0  0  0  0  0  0  0  0
    4.5153  -13.0814   24.7633 C   0  0  0  0  0  0  0  0  0  0  0  0
    5.4574  -13.7572   24.6571 O   0  0  0  0  0  0  0  0  0  0  0  0
    3.3096  -13.5470   25.4685 C   0  0  0  0  0  0  0  0  0  0  0  0
    2.1252  -12.9211   25.2978 N   0  0  0  0  0  0  0  0  0  0  0  0
    1.2360  -13.5475   26.1558 O   0  0  0  0  0  0  0  0  0  0  0  0
    1.8748  -14.5407   26.8184 C   0  0  0  0  0  0  0  0  0  0  0  0
    3.1684  -14.5999   26.3917 C   0  0  0  0  0  0  0  0  0  0  0  0
    4.4893  -15.7742   26.9699 Br  0  0  0  0  0  0  0  0  0  0  0  0
  1  2  1  0
  2  3  1  0
  2  4  1  0
  4  5  1  0
  5  6  1  0
  6  7  1  0
  7  8  1  1
  8  9  1  0
  9 10  2  0
  9 11  1  0
 11 12  2  0
 12 13  1  0
 13 14  1  0
 14 15  2  0
 15 16  1  0
  7  2  1  0
 15 11  1  0
M  END
>  <placement_batch>  (115) 
CpKRS_FrAncestor_bulkdock_iter2_cluster_best5

>  <name>  (115) 
HFFICEUONYFJJN-UHFFFAOYSA-N-P12

>  <HIPPO Pose ID>  (115) 
57318

>  <inchikey>  (115) 
HFFICEUONYFJJN-UHFFFAOYSA-N

>  <inspiration_score>  (115) 
0.919

>  <tags>  (115) 
CpKRS_FrAncestor_bulkdock_iter2,CpKRS_FrAncestor_bulkdock_iter2_cluster_best5,BulkDock Fragalysis export,fragmenstein_placed,CpKRS_FrAncestor_bulkdock_iter2_exported

>  <distance_score>  (115) 
0.341128

>  <ref_pdb>  (115) 
x0485c

>  <alias>  (115) 
HFFICEUONYFJJN-UHFFFAOYSA-N-P12

>  <subsites>  (115) 


>  <smiles>  (115) 
CC1(C)CCCC1NC(=O)c1nocc1Br

>  <HIPPO Compound ID>  (115) 
34741

>  <ref_mols>  (115) 
x0421b

>  <energy_score>  (115) 
-39.297016

$$$$
HFSHDKBSBJTAGY-UHFFFAOYSA-N-P12
     RDKit          3D

 16 17  0  0  0  0  0  0  0  0999 V2000
    5.9923   -8.8417   24.9378 C   0  0  0  0  0  0  0  0  0  0  0  0
    5.0035   -9.3017   23.8667 C   0  0  0  0  0  0  0  0  0  0  0  0
    3.5983   -8.8779   24.2972 C   0  0  0  0  0  0  0  0  0  0  0  0
    5.4228   -8.6618   22.5349 C   0  0  0  0  0  0  0  0  0  0  0  0
    4.7051   -9.4855   21.4912 C   0  0  0  0  0  0  0  0  0  0  0  0
    4.6692  -10.9055   22.0368 C   0  0  0  0  0  0  0  0  0  0  0  0
    5.0720  -10.8051   23.5119 C   0  0  2  0  0  0  0  0  0  0  0  0
    4.2845  -11.7051   24.3061 N   0  0  0  0  0  0  0  0  0  0  0  0
    4.5997  -13.1207   24.8219 C   0  0  0  0  0  0  0  0  0  0  0  0
    5.5770  -13.7502   24.7495 O   0  0  0  0  0  0  0  0  0  0  0  0
    3.4238  -13.6226   25.5519 C   0  0  0  0  0  0  0  0  0  0  0  0
    2.2179  -13.0325   25.4114 N   0  0  0  0  0  0  0  0  0  0  0  0
    1.3704  -13.6930   26.2834 O   0  0  0  0  0  0  0  0  0  0  0  0
    2.0565  -14.6672   26.9243 C   0  0  0  0  0  0  0  0  0  0  0  0
    3.3492  -14.6884   26.4788 C   0  0  0  0  0  0  0  0  0  0  0  0
    4.5860  -15.7233   26.9818 Cl  0  0  0  0  0  0  0  0  0  0  0  0
  1  2  1  0
  2  3  1  0
  2  4  1  0
  4  5  1  0
  5  6  1  0
  6  7  1  0
  7  8  1  1
  8  9  1  0
  9 10  2  0
  9 11  1  0
 11 12  2  0
 12 13  1  0
 13 14  1  0
 14 15  2  0
 15 16  1  0
  7  2  1  0
 15 11  1  0
M  END
>  <placement_batch>  (116) 
CpKRS_FrAncestor_bulkdock_iter2_cluster_best5

>  <name>  (116) 
HFSHDKBSBJTAGY-UHFFFAOYSA-N-P12

>  <HIPPO Pose ID>  (116) 
57330

>  <inchikey>  (116) 
HFSHDKBSBJTAGY-UHFFFAOYSA-N

>  <inspiration_score>  (116) 
0.918

>  <tags>  (116) 
CpKRS_FrAncestor_bulkdock_iter2,CpKRS_FrAncestor_bulkdock_iter2_cluster_best5,BulkDock Fragalysis export,fragmenstein_placed,CpKRS_FrAncestor_bulkdock_iter2_exported

>  <distance_score>  (116) 
0.322367

>  <ref_pdb>  (116) 
x0485c

>  <alias>  (116) 
HFSHDKBSBJTAGY-UHFFFAOYSA-N-P12

>  <subsites>  (116) 


>  <smiles>  (116) 
CC1(C)CCCC1NC(=O)c1nocc1Cl

>  <HIPPO Compound ID>  (116) 
34744

>  <ref_mols>  (116) 
x0421b

>  <energy_score>  (116) 
-37.509121

$$$$
QRLPVMZFFLPQJC-UHFFFAOYSA-N-P59
     RDKit          3D

 15 16  0  0  0  0  0  0  0  0999 V2000
    3.0224  -20.0681   22.9334 C   0  0  0  0  0  0  0  0  0  0  0  0
    3.8571  -20.8673   21.9827 C   0  0  0  0  0  0  0  0  0  0  0  0
    5.0044  -20.3274   21.4260 C   0  0  0  0  0  0  0  0  0  0  0  0
    5.8023  -21.1255   20.6216 C   0  0  0  0  0  0  0  0  0  0  0  0
    5.4167  -22.4365   20.3684 C   0  0  0  0  0  0  0  0  0  0  0  0
    4.2371  -22.9202   20.9378 C   0  0  0  0  0  0  0  0  0  0  0  0
    3.8453  -24.3972   20.7852 C   0  0  1  0  0  0  0  0  0  0  0  0
    2.9161  -24.7935   21.9502 C   0  0  0  0  0  0  0  0  0  0  0  0
    3.1622  -24.8043   19.5380 N   0  0  0  0  0  0  0  0  0  0  0  0
    3.4579  -24.0202   18.3382 C   0  0  0  0  0  0  0  0  0  0  0  0
    2.7741  -24.5616   17.1089 C   0  0  0  0  0  0  0  0  0  0  0  0
    2.2231  -25.7819   17.0433 C   0  0  0  0  0  0  0  0  0  0  0  0
    2.2793  -26.7046   18.2218 C   0  0  0  0  0  0  0  0  0  0  0  0
    3.2936  -26.2458   19.2780 C   0  0  0  0  0  0  0  0  0  0  0  0
    3.4632  -22.1343   21.7321 N   0  0  0  0  0  0  0  0  0  0  0  0
  1  2  1  0
  2  3  2  0
  3  4  1  0
  4  5  2  0
  5  6  1  0
  6  7  1  0
  7  8  1  1
  7  9  1  0
  9 10  1  0
 10 11  1  0
 11 12  2  0
 12 13  1  0
 13 14  1  0
  6 15  2  0
 15  2  1  0
 14  9  1  0
M  END
>  <placement_batch>  (117) 
CpKRS_FrAncestor_bulkdock_iter2_cluster_best5

>  <name>  (117) 
QRLPVMZFFLPQJC-UHFFFAOYSA-N-P59

>  <HIPPO Pose ID>  (117) 
57343

>  <inchikey>  (117) 
QRLPVMZFFLPQJC-UHFFFAOYSA-N

>  <inspiration_score>  (117) 
0.679

>  <tags>  (117) 
CpKRS_FrAncestor_bulkdock_iter2,CpKRS_FrAncestor_bulkdock_iter2_cluster_best5,BulkDock Fragalysis export,fragmenstein_placed,CpKRS_FrAncestor_bulkdock_iter2_exported

>  <distance_score>  (117) 
0.454477

>  <ref_pdb>  (117) 
x0485c

>  <alias>  (117) 
QRLPVMZFFLPQJC-UHFFFAOYSA-N-P59

>  <subsites>  (117) 


>  <smiles>  (117) 
Cc1cccc(C(C)N2CC=CCC2)n1

>  <HIPPO Compound ID>  (117) 
34748

>  <ref_mols>  (117) 
x0675a

>  <energy_score>  (117) 
-33.130886

$$$$
OZENCQZXVMMENL-UHFFFAOYSA-N-P29
     RDKit          3D

 18 19  0  0  0  0  0  0  0  0999 V2000
    4.6931    2.1897   43.9132 C   0  0  0  0  0  0  0  0  0  0  0  0
    3.9704    3.3546   44.5170 C   0  0  0  0  0  0  0  0  0  0  0  0
    3.5262    3.3267   45.8332 C   0  0  0  0  0  0  0  0  0  0  0  0
    2.8171    4.4062   46.3746 C   0  0  0  0  0  0  0  0  0  0  0  0
    2.2070    4.1995   47.7245 C   0  0  0  0  0  0  0  0  0  0  0  0
    2.6521    5.5953   45.6352 C   0  0  0  0  0  0  0  0  0  0  0  0
    1.9902    6.7731   46.3022 C   0  0  0  0  0  0  0  0  0  0  0  0
    3.1154    5.6275   44.3063 C   0  0  0  0  0  0  0  0  0  0  0  0
    2.9966    6.7839   43.5316 N   0  0  0  0  0  0  0  0  0  0  0  0
    3.2739    7.0189   42.0280 C   0  0  0  0  0  0  0  0  0  0  0  0
    3.5709    6.2654   41.1860 O   0  0  0  0  0  0  0  0  0  0  0  0
    3.1035    8.4342   41.6481 C   0  0  0  0  0  0  0  0  0  0  0  0
    4.0506    9.0317   40.8237 C   0  0  0  0  0  0  0  0  0  0  0  0
    3.8033   10.3188   40.4012 C   0  0  0  0  0  0  0  0  0  0  0  0
    2.6901   10.9933   40.7531 N   0  0  0  0  0  0  0  0  0  0  0  0
    1.7620   10.3995   41.5594 N   0  0  0  0  0  0  0  0  0  0  0  0
    1.9703    9.1426   41.9966 C   0  0  0  0  0  0  0  0  0  0  0  0
    3.7158    4.4924   43.7470 C   0  0  0  0  0  0  0  0  0  0  0  0
  1  2  1  0
  2  3  2  0
  3  4  1  0
  4  5  1  0
  4  6  2  0
  6  7  1  0
  6  8  1  0
  8  9  1  0
  9 10  1  0
 10 11  2  0
 10 12  1  0
 12 13  2  0
 13 14  1  0
 14 15  2  0
 15 16  1  0
 16 17  2  0
  8 18  2  0
 18  2  1  0
 17 12  1  0
M  END
>  <placement_batch>  (118) 
CpKRS_FrAncestor_bulkdock_iter2_cluster_best5

>  <name>  (118) 
OZENCQZXVMMENL-UHFFFAOYSA-N-P29

>  <HIPPO Pose ID>  (118) 
57364

>  <inchikey>  (118) 
OZENCQZXVMMENL-UHFFFAOYSA-N

>  <inspiration_score>  (118) 
0.784

>  <tags>  (118) 
CpKRS_FrAncestor_bulkdock_iter2,CpKRS_FrAncestor_bulkdock_iter2_cluster_best5,BulkDock Fragalysis export,fragmenstein_placed,CpKRS_FrAncestor_bulkdock_iter2_exported

>  <distance_score>  (118) 
0.556449

>  <ref_pdb>  (118) 
x0485c

>  <alias>  (118) 
OZENCQZXVMMENL-UHFFFAOYSA-N-P29

>  <subsites>  (118) 


>  <smiles>  (118) 
Cc1cc(C)c(C)c(NC(=O)c2ccnnc2)c1

>  <HIPPO Compound ID>  (118) 
34757

>  <ref_mols>  (118) 
x0485c

>  <energy_score>  (118) 
-12.171563

$$$$
POWPETCAOYWTPT-UHFFFAOYSA-N-P64
     RDKit          3D

 17 18  0  0  0  0  0  0  0  0999 V2000
    5.2274   -8.6941   21.0108 C   0  0  0  0  0  0  0  0  0  0  0  0
    5.2734   -8.6248   22.4654 C   0  0  0  0  0  0  0  0  0  0  0  0
    5.4248   -7.3524   22.9870 N   0  0  0  0  0  0  0  0  0  0  0  0
    5.7792   -7.4475   24.2415 C   0  0  0  0  0  0  0  0  0  0  0  0
    5.8714   -9.0277   24.8268 S   0  0  0  0  0  0  0  0  0  0  0  0
    5.2645   -9.6796   23.3670 C   0  0  0  0  0  0  0  0  0  0  0  0
    5.0758  -11.1621   23.1665 C   0  0  2  0  0  0  0  0  0  0  0  0
    4.2485  -11.5356   21.9514 C   0  0  0  0  0  0  0  0  0  0  0  0
    4.4415  -11.8482   24.2634 N   0  0  0  0  0  0  0  0  0  0  0  0
    4.6029  -13.2910   24.7648 C   0  0  0  0  0  0  0  0  0  0  0  0
    5.3296  -14.1321   24.4207 O   0  0  0  0  0  0  0  0  0  0  0  0
    3.5951  -13.6216   25.7634 C   0  0  0  0  0  0  0  0  0  0  0  0
    2.3491  -13.0807   26.0585 C   0  0  0  0  0  0  0  0  0  0  0  0
    1.7582  -13.8618   27.0876 C   0  0  0  0  0  0  0  0  0  0  0  0
    2.6518  -14.8541   27.3770 C   0  0  0  0  0  0  0  0  0  0  0  0
    2.6066  -16.1283   28.4950 Cl  0  0  0  0  0  0  0  0  0  0  0  0
    3.7464  -14.7260   26.5841 N   0  0  0  0  0  0  0  0  0  0  0  0
  1  2  1  0
  2  3  1  0
  3  4  2  0
  4  5  1  0
  5  6  1  0
  6  7  1  0
  7  8  1  6
  7  9  1  0
  9 10  1  0
 10 11  2  0
 10 12  1  0
 12 13  2  0
 13 14  1  0
 14 15  2  0
 15 16  1  0
 15 17  1  0
  6  2  2  0
 17 12  1  0
M  END
>  <placement_batch>  (119) 
CpKRS_FrAncestor_bulkdock_iter2_cluster_best5

>  <name>  (119) 
POWPETCAOYWTPT-UHFFFAOYSA-N-P64

>  <HIPPO Pose ID>  (119) 
57698

>  <inchikey>  (119) 
POWPETCAOYWTPT-UHFFFAOYSA-N

>  <inspiration_score>  (119) 
0.75

>  <tags>  (119) 
CpKRS_FrAncestor_bulkdock_iter2,CpKRS_FrAncestor_bulkdock_iter2_cluster_best5,BulkDock Fragalysis export,fragmenstein_placed,CpKRS_FrAncestor_bulkdock_iter2_exported

>  <distance_score>  (119) 
0.727025

>  <ref_pdb>  (119) 
x0502c

>  <alias>  (119) 
POWPETCAOYWTPT-UHFFFAOYSA-N-P64

>  <subsites>  (119) 


>  <smiles>  (119) 
Cc1ncsc1C(C)NC(=O)c1ccc(Cl)[nH]1

>  <HIPPO Compound ID>  (119) 
37457

>  <ref_mols>  (119) 
x0787b

>  <energy_score>  (119) 
-37.584155

$$$$
UWBXRUVIEWRZQO-UHFFFAOYSA-N-P64
     RDKit          3D

 16 17  0  0  0  0  0  0  0  0999 V2000
    4.8759   -8.7196   20.9685 C   0  0  0  0  0  0  0  0  0  0  0  0
    5.2442   -8.7379   22.3728 C   0  0  0  0  0  0  0  0  0  0  0  0
    5.5493   -7.5138   22.9393 N   0  0  0  0  0  0  0  0  0  0  0  0
    6.0240   -7.7144   24.1427 C   0  0  0  0  0  0  0  0  0  0  0  0
    6.0535   -9.3358   24.6275 S   0  0  0  0  0  0  0  0  0  0  0  0
    5.3269   -9.8485   23.1842 C   0  0  0  0  0  0  0  0  0  0  0  0
    5.0184  -11.2686   22.8495 C   0  0  0  0  0  0  0  0  0  0  0  0
    4.3039  -11.9633   23.8791 N   0  0  0  0  0  0  0  0  0  0  0  0
    4.5569  -13.3370   24.5157 C   0  0  0  0  0  0  0  0  0  0  0  0
    5.3396  -14.1570   24.2535 O   0  0  0  0  0  0  0  0  0  0  0  0
    3.5641  -13.6391   25.5452 C   0  0  0  0  0  0  0  0  0  0  0  0
    2.3381  -13.0793   25.8885 C   0  0  0  0  0  0  0  0  0  0  0  0
    1.7846  -13.8334   26.9592 C   0  0  0  0  0  0  0  0  0  0  0  0
    2.6818  -14.8259   27.2334 C   0  0  0  0  0  0  0  0  0  0  0  0
    2.6716  -16.0746   28.3819 Cl  0  0  0  0  0  0  0  0  0  0  0  0
    3.7449  -14.7199   26.3955 N   0  0  0  0  0  0  0  0  0  0  0  0
  1  2  1  0
  2  3  1  0
  3  4  2  0
  4  5  1  0
  5  6  1  0
  6  7  1  0
  7  8  1  0
  8  9  1  0
  9 10  2  0
  9 11  1  0
 11 12  2  0
 12 13  1  0
 13 14  2  0
 14 15  1  0
 14 16  1  0
  6  2  2  0
 16 11  1  0
M  END
>  <placement_batch>  (120) 
CpKRS_FrAncestor_bulkdock_iter2_cluster_best5

>  <name>  (120) 
UWBXRUVIEWRZQO-UHFFFAOYSA-N-P64

>  <HIPPO Pose ID>  (120) 
57703

>  <inchikey>  (120) 
UWBXRUVIEWRZQO-UHFFFAOYSA-N

>  <inspiration_score>  (120) 
0.839

>  <tags>  (120) 
CpKRS_FrAncestor_bulkdock_iter2,CpKRS_FrAncestor_bulkdock_iter2_cluster_best5,BulkDock Fragalysis export,fragmenstein_placed,CpKRS_FrAncestor_bulkdock_iter2_exported

>  <distance_score>  (120) 
0.541218

>  <ref_pdb>  (120) 
x0502c

>  <alias>  (120) 
UWBXRUVIEWRZQO-UHFFFAOYSA-N-P64

>  <subsites>  (120) 


>  <smiles>  (120) 
Cc1ncsc1CNC(=O)c1ccc(Cl)[nH]1

>  <HIPPO Compound ID>  (120) 
37459

>  <ref_mols>  (120) 
x0787b

>  <energy_score>  (120) 
-61.671638

$$$$
PVDARJMDGRTDBC-UHFFFAOYSA-N-P55
     RDKit          3D

 18 19  0  0  0  0  0  0  0  0999 V2000
    2.6443  -16.0482   28.7699 C   0  0  0  0  0  0  0  0  0  0  0  0
    2.8106  -15.2053   27.5688 C   0  0  0  0  0  0  0  0  0  0  0  0
    1.8155  -14.3885   27.1219 N   0  0  0  0  0  0  0  0  0  0  0  0
    2.2706  -13.6016   26.0899 C   0  0  0  0  0  0  0  0  0  0  0  0
    1.3956  -12.5095   25.5890 C   0  0  0  0  0  0  0  0  0  0  0  0
    3.5726  -14.0140   25.7798 C   0  0  0  0  0  0  0  0  0  0  0  0
    4.5258  -13.4778   24.7695 C   0  0  0  0  0  0  0  0  0  0  0  0
    5.6651  -13.5214   24.9910 O   0  0  0  0  0  0  0  0  0  0  0  0
    3.7688  -12.8507   23.6046 N   0  0  0  0  0  0  0  0  0  0  0  0
    4.2485  -12.2259   22.4170 C   0  0  0  0  0  0  0  0  0  0  0  0
    4.6253  -10.7971   22.6993 C   0  0  0  0  0  0  0  0  0  0  0  0
    4.5594  -10.1748   23.8625 N   0  0  0  0  0  0  0  0  0  0  0  0
    5.1145   -8.9154   23.7572 C   0  0  0  0  0  0  0  0  0  0  0  0
    5.2827   -7.9087   25.1223 Cl  0  0  0  0  0  0  0  0  0  0  0  0
    5.4667   -8.5380   22.4828 C   0  0  0  0  0  0  0  0  0  0  0  0
    5.2017   -9.8272   21.4034 S   0  0  0  0  0  0  0  0  0  0  0  0
    3.9024  -15.0331   26.7430 C   0  0  0  0  0  0  0  0  0  0  0  0
    5.1915  -15.7504   26.8836 C   0  0  0  0  0  0  0  0  0  0  0  0
  1  2  1  0
  2  3  1  0
  3  4  1  0
  4  5  1  0
  4  6  2  0
  6  7  1  0
  7  8  2  0
  7  9  1  0
  9 10  1  0
 10 11  1  0
 11 12  2  0
 12 13  1  0
 13 14  1  0
 13 15  2  0
 15 16  1  0
  6 17  1  0
 17 18  1  0
 17  2  2  0
 16 11  1  0
M  END
>  <placement_batch>  (121) 
CpKRS_FrAncestor_bulkdock_iter2_cluster_best5

>  <name>  (121) 
PVDARJMDGRTDBC-UHFFFAOYSA-N-P55

>  <HIPPO Pose ID>  (121) 
57705

>  <inchikey>  (121) 
PVDARJMDGRTDBC-UHFFFAOYSA-N

>  <inspiration_score>  (121) 
0.865

>  <tags>  (121) 
CpKRS_FrAncestor_bulkdock_iter2,CpKRS_FrAncestor_bulkdock_iter2_cluster_best5,BulkDock Fragalysis export,fragmenstein_placed,CpKRS_FrAncestor_bulkdock_iter2_exported

>  <distance_score>  (121) 
0.401725

>  <ref_pdb>  (121) 
x0502c

>  <alias>  (121) 
PVDARJMDGRTDBC-UHFFFAOYSA-N-P55

>  <subsites>  (121) 


>  <smiles>  (121) 
Cc1[nH]c(C)c(C(=O)NCc2nc(Cl)cs2)c1C

>  <HIPPO Compound ID>  (121) 
37461

>  <ref_mols>  (121) 
x0646a

>  <energy_score>  (121) 
-54.45078

$$$$
HKECGNAUAROFTI-UHFFFAOYSA-N-P45
     RDKit          3D

 15 16  0  0  0  0  0  0  0  0999 V2000
    4.5704  -15.7157   27.2400 C   0  0  0  0  0  0  0  0  0  0  0  0
    3.4535  -14.7973   26.9142 C   0  0  0  0  0  0  0  0  0  0  0  0
    2.3239  -14.8863   27.7188 N   0  0  0  0  0  0  0  0  0  0  0  0
    1.4360  -14.0184   27.3139 C   0  0  0  0  0  0  0  0  0  0  0  0
    1.8339  -13.0964   25.9413 S   0  0  0  0  0  0  0  0  0  0  0  0
    3.3954  -13.8343   25.9109 C   0  0  0  0  0  0  0  0  0  0  0  0
    4.4529  -13.3895   24.9876 C   0  0  0  0  0  0  0  0  0  0  0  0
    5.5603  -13.6948   25.1842 O   0  0  0  0  0  0  0  0  0  0  0  0
    3.8463  -12.4787   23.9037 N   0  0  0  0  0  0  0  0  0  0  0  0
    4.4830  -11.6770   22.8926 C   0  0  0  0  0  0  0  0  0  0  0  0
    3.9831  -10.2305   22.9319 C   0  0  2  0  0  0  0  0  0  0  0  0
    4.5901   -9.3754   21.8622 C   0  0  0  0  0  0  0  0  0  0  0  0
    5.4029   -8.4416   22.3608 C   0  0  0  0  0  0  0  0  0  0  0  0
    5.5259   -8.5377   23.8405 C   0  0  0  0  0  0  0  0  0  0  0  0
    4.3789   -9.4755   24.2125 C   0  0  0  0  0  0  0  0  0  0  0  0
  1  2  1  0
  2  3  1  0
  3  4  2  0
  4  5  1  0
  5  6  1  0
  6  7  1  0
  7  8  2  0
  7  9  1  0
  9 10  1  0
 11 10  1  1
 11 12  1  0
 12 13  2  0
 13 14  1  0
 14 15  1  0
  6  2  2  0
 15 11  1  0
M  END
>  <placement_batch>  (122) 
CpKRS_FrAncestor_bulkdock_iter2_cluster_best5

>  <name>  (122) 
HKECGNAUAROFTI-UHFFFAOYSA-N-P45

>  <HIPPO Pose ID>  (122) 
57841

>  <inchikey>  (122) 
HKECGNAUAROFTI-UHFFFAOYSA-N

>  <inspiration_score>  (122) 
0.956

>  <tags>  (122) 
CpKRS_FrAncestor_bulkdock_iter2,CpKRS_FrAncestor_bulkdock_iter2_cluster_best5,BulkDock Fragalysis export,fragmenstein_placed,CpKRS_FrAncestor_bulkdock_iter2_exported

>  <distance_score>  (122) 
0.280253

>  <ref_pdb>  (122) 
x0502c

>  <alias>  (122) 
HKECGNAUAROFTI-UHFFFAOYSA-N-P45

>  <subsites>  (122) 


>  <smiles>  (122) 
Cc1ncsc1C(=O)NCC1C=CCC1

>  <HIPPO Compound ID>  (122) 
37500

>  <ref_mols>  (122) 
x0502a

>  <energy_score>  (122) 
-81.538652

$$$$
CKQZYHKSXAINCB-UHFFFAOYSA-N-P46
     RDKit          3D

 15 16  0  0  0  0  0  0  0  0999 V2000
    4.4511  -15.7168   27.1304 C   0  0  0  0  0  0  0  0  0  0  0  0
    3.3866  -14.7305   26.8220 C   0  0  0  0  0  0  0  0  0  0  0  0
    2.2349  -14.7531   27.6039 N   0  0  0  0  0  0  0  0  0  0  0  0
    1.4142  -13.8187   27.1948 C   0  0  0  0  0  0  0  0  0  0  0  0
    1.8964  -12.9278   25.8257 S   0  0  0  0  0  0  0  0  0  0  0  0
    3.4073  -13.7628   25.8254 C   0  0  0  0  0  0  0  0  0  0  0  0
    4.5009  -13.3931   24.9141 C   0  0  0  0  0  0  0  0  0  0  0  0
    5.6053  -13.6504   25.1815 O   0  0  0  0  0  0  0  0  0  0  0  0
    3.9179  -12.6340   23.7097 N   0  0  0  0  0  0  0  0  0  0  0  0
    4.5744  -11.9503   22.6309 C   0  0  0  0  0  0  0  0  0  0  0  0
    5.1264  -10.5977   23.0558 C   0  0  2  0  0  0  0  0  0  0  0  0
    4.1949   -9.7927   23.9421 C   0  0  0  0  0  0  0  0  0  0  0  0
    4.7600   -8.4139   23.7584 C   0  0  0  0  0  0  0  0  0  0  0  0
    5.0623   -8.4081   22.2747 C   0  0  0  0  0  0  0  0  0  0  0  0
    5.3654   -9.7626   21.9068 O   0  0  0  0  0  0  0  0  0  0  0  0
  1  2  1  0
  2  3  1  0
  3  4  2  0
  4  5  1  0
  5  6  1  0
  6  7  1  0
  7  8  2  0
  7  9  1  0
  9 10  1  0
 11 10  1  6
 11 12  1  0
 12 13  1  0
 13 14  1  0
 14 15  1  0
  6  2  2  0
 15 11  1  0
M  END
>  <placement_batch>  (123) 
CpKRS_FrAncestor_bulkdock_iter2_cluster_best5

>  <name>  (123) 
CKQZYHKSXAINCB-UHFFFAOYSA-N-P46

>  <HIPPO Pose ID>  (123) 
57846

>  <inchikey>  (123) 
CKQZYHKSXAINCB-UHFFFAOYSA-N

>  <inspiration_score>  (123) 
0.925

>  <tags>  (123) 
CpKRS_FrAncestor_bulkdock_iter2,CpKRS_FrAncestor_bulkdock_iter2_cluster_best5,BulkDock Fragalysis export,fragmenstein_placed,CpKRS_FrAncestor_bulkdock_iter2_exported

>  <distance_score>  (123) 
0.356612

>  <ref_pdb>  (123) 
x0502c

>  <alias>  (123) 
CKQZYHKSXAINCB-UHFFFAOYSA-N-P46

>  <subsites>  (123) 


>  <smiles>  (123) 
Cc1ncsc1C(=O)NCC1CCCO1

>  <HIPPO Compound ID>  (123) 
37501

>  <ref_mols>  (123) 
x0502c

>  <energy_score>  (123) 
-63.975365

$$$$
MQTFHLXWWUKTCV-UHFFFAOYSA-N-P46
     RDKit          3D

 15 16  0  0  0  0  0  0  0  0999 V2000
    4.5692  -15.5112   26.9243 C   0  0  0  0  0  0  0  0  0  0  0  0
    3.4067  -14.6097   26.7188 C   0  0  0  0  0  0  0  0  0  0  0  0
    2.3415  -14.7258   27.6057 N   0  0  0  0  0  0  0  0  0  0  0  0
    1.4099  -13.8648   27.2813 C   0  0  0  0  0  0  0  0  0  0  0  0
    1.6888  -12.9293   25.8860 S   0  0  0  0  0  0  0  0  0  0  0  0
    3.2496  -13.6436   25.7326 C   0  0  0  0  0  0  0  0  0  0  0  0
    4.1926  -13.2099   24.7225 C   0  0  0  0  0  0  0  0  0  0  0  0
    5.3979  -13.4346   24.7180 O   0  0  0  0  0  0  0  0  0  0  0  0
    3.5709  -12.4431   23.7755 O   0  0  0  0  0  0  0  0  0  0  0  0
    4.3859  -11.8829   22.7355 C   0  0  0  0  0  0  0  0  0  0  0  0
    4.9949  -10.5733   23.1983 C   0  0  2  0  0  0  0  0  0  0  0  0
    4.0731   -9.7003   24.0164 C   0  0  0  0  0  0  0  0  0  0  0  0
    4.8234   -8.3954   23.9748 C   0  0  0  0  0  0  0  0  0  0  0  0
    5.3608   -8.2962   22.6500 O   0  0  0  0  0  0  0  0  0  0  0  0
    5.3873   -9.6197   22.0823 C   0  0  0  0  0  0  0  0  0  0  0  0
  1  2  1  0
  2  3  1  0
  3  4  2  0
  4  5  1  0
  5  6  1  0
  6  7  1  0
  7  8  2  0
  7  9  1  0
  9 10  1  0
 11 10  1  6
 11 12  1  0
 12 13  1  0
 13 14  1  0
 14 15  1  0
  6  2  2  0
 15 11  1  0
M  END
>  <placement_batch>  (124) 
CpKRS_FrAncestor_bulkdock_iter2_cluster_best5

>  <name>  (124) 
MQTFHLXWWUKTCV-UHFFFAOYSA-N-P46

>  <HIPPO Pose ID>  (124) 
57849

>  <inchikey>  (124) 
MQTFHLXWWUKTCV-UHFFFAOYSA-N

>  <inspiration_score>  (124) 
0.82

>  <tags>  (124) 
CpKRS_FrAncestor_bulkdock_iter2,CpKRS_FrAncestor_bulkdock_iter2_cluster_best5,BulkDock Fragalysis export,fragmenstein_placed,CpKRS_FrAncestor_bulkdock_iter2_exported

>  <distance_score>  (124) 
0.300662

>  <ref_pdb>  (124) 
x0502c

>  <alias>  (124) 
MQTFHLXWWUKTCV-UHFFFAOYSA-N-P46

>  <subsites>  (124) 


>  <smiles>  (124) 
Cc1ncsc1C(=O)OCC1CCOC1

>  <HIPPO Compound ID>  (124) 
37503

>  <ref_mols>  (124) 
x0502c

>  <energy_score>  (124) 
-58.154836

$$$$
VNCYWECKZRCTFX-UHFFFAOYSA-N-P55
     RDKit          3D

 17 18  0  0  0  0  0  0  0  0999 V2000
    0.8684  -13.8067   26.4972 C   0  0  0  0  0  0  0  0  0  0  0  0
    2.2004  -14.3806   26.8286 C   0  0  0  0  0  0  0  0  0  0  0  0
    2.2710  -15.2479   27.8971 N   0  0  0  0  0  0  0  0  0  0  0  0
    3.5059  -15.8149   27.9732 C   0  0  0  0  0  0  0  0  0  0  0  0
    4.2784  -15.2454   26.9931 C   0  0  0  0  0  0  0  0  0  0  0  0
    3.4862  -14.2846   26.2784 C   0  0  0  0  0  0  0  0  0  0  0  0
    4.0240  -13.4907   25.1380 C   0  0  0  0  0  0  0  0  0  0  0  0
    5.0455  -13.7998   24.6731 O   0  0  0  0  0  0  0  0  0  0  0  0
    3.0223  -12.4118   24.7088 N   0  0  0  0  0  0  0  0  0  0  0  0
    3.0164  -11.5391   23.5522 C   0  0  0  0  0  0  0  0  0  0  0  0
    3.1980  -12.4304   22.3300 C   0  0  0  0  0  0  0  0  0  0  0  0
    1.6231  -10.8740   23.4772 C   0  0  0  0  0  0  0  0  0  0  0  0
    4.0536  -10.4263   23.6509 C   0  0  0  0  0  0  0  0  0  0  0  0
    3.9481   -9.4172   24.5017 N   0  0  0  0  0  0  0  0  0  0  0  0
    4.9924   -8.5321   24.3335 C   0  0  0  0  0  0  0  0  0  0  0  0
    5.8339   -8.8086   23.2852 C   0  0  0  0  0  0  0  0  0  0  0  0
    5.3394  -10.2410   22.5054 S   0  0  0  0  0  0  0  0  0  0  0  0
  1  2  1  0
  2  3  1  0
  3  4  1  0
  4  5  2  0
  5  6  1  0
  6  7  1  0
  7  8  2  0
  7  9  1  0
  9 10  1  0
 10 11  1  0
 10 12  1  0
 10 13  1  0
 13 14  2  0
 14 15  1  0
 15 16  2  0
 16 17  1  0
  6  2  2  0
 17 13  1  0
M  END
>  <placement_batch>  (125) 
CpKRS_FrAncestor_bulkdock_iter2_cluster_best5

>  <name>  (125) 
VNCYWECKZRCTFX-UHFFFAOYSA-N-P55

>  <HIPPO Pose ID>  (125) 
57867

>  <inchikey>  (125) 
VNCYWECKZRCTFX-UHFFFAOYSA-N

>  <inspiration_score>  (125) 
0.656

>  <tags>  (125) 
CpKRS_FrAncestor_bulkdock_iter2,CpKRS_FrAncestor_bulkdock_iter2_cluster_best5,BulkDock Fragalysis export,fragmenstein_placed,CpKRS_FrAncestor_bulkdock_iter2_exported

>  <distance_score>  (125) 
0.868549

>  <ref_pdb>  (125) 
x0502c

>  <alias>  (125) 
VNCYWECKZRCTFX-UHFFFAOYSA-N-P55

>  <subsites>  (125) 


>  <smiles>  (125) 
Cc1[nH]ccc1C(=O)NC(C)(C)c1nccs1

>  <HIPPO Compound ID>  (125) 
37518

>  <ref_mols>  (125) 
x0646a

>  <energy_score>  (125) 
-62.133722

$$$$
URLYBEQWLDTAML-UHFFFAOYSA-N-P11
     RDKit          3D

 18 19  0  0  0  0  0  0  0  0999 V2000
    1.6378  -16.2662   27.8285 C   0  0  0  0  0  0  0  0  0  0  0  0
    2.1696  -15.1828   26.9786 C   0  0  0  0  0  0  0  0  0  0  0  0
    1.3571  -14.3057   26.3363 N   0  0  0  0  0  0  0  0  0  0  0  0
    2.0043  -13.3826   25.6295 N   0  0  0  0  0  0  0  0  0  0  0  0
    3.3055  -13.7489   25.7058 C   0  0  0  0  0  0  0  0  0  0  0  0
    4.3420  -13.0182   24.9548 C   0  0  0  0  0  0  0  0  0  0  0  0
    5.4940  -13.4126   24.8162 O   0  0  0  0  0  0  0  0  0  0  0  0
    3.8905  -11.8199   24.4608 O   0  0  0  0  0  0  0  0  0  0  0  0
    4.8623  -10.9954   23.8244 C   0  0  0  0  0  0  0  0  0  0  0  0
    4.4317   -9.5355   23.9126 C   0  0  0  0  0  0  0  0  0  0  0  0
    5.2574   -8.8697   22.8277 C   0  0  0  0  0  0  0  0  0  0  0  0
    5.3250   -9.9003   21.7059 C   0  0  0  0  0  0  0  0  0  0  0  0
    4.9223  -11.2413   22.3205 C   0  0  0  0  0  0  0  0  0  0  0  0
    3.4658  -14.8603   26.5988 C   0  0  0  0  0  0  0  0  0  0  0  0
    4.7045  -15.5437   27.0525 C   0  0  0  0  0  0  0  0  0  0  0  0
    5.8646  -14.9014   26.7915 F   0  0  0  0  0  0  0  0  0  0  0  0
    4.6769  -15.7300   28.4050 F   0  0  0  0  0  0  0  0  0  0  0  0
    4.8382  -16.7965   26.5481 F   0  0  0  0  0  0  0  0  0  0  0  0
  1  2  1  0
  2  3  1  0
  3  4  1  0
  4  5  2  0
  5  6  1  0
  6  7  2  0
  6  8  1  0
  8  9  1  0
  9 10  1  0
 10 11  1  0
 11 12  1  0
 12 13  1  0
  5 14  1  0
 14 15  1  0
 15 16  1  0
 15 17  1  0
 15 18  1  0
 14  2  2  0
 13  9  1  0
M  END
>  <placement_batch>  (126) 
CpKRS_FrAncestor_bulkdock_iter2_cluster_best5

>  <name>  (126) 
URLYBEQWLDTAML-UHFFFAOYSA-N-P11

>  <HIPPO Pose ID>  (126) 
57890

>  <inchikey>  (126) 
URLYBEQWLDTAML-UHFFFAOYSA-N

>  <inspiration_score>  (126) 
0.667

>  <tags>  (126) 
CpKRS_FrAncestor_bulkdock_iter2,CpKRS_FrAncestor_bulkdock_iter2_cluster_best5,BulkDock Fragalysis export,fragmenstein_placed,CpKRS_FrAncestor_bulkdock_iter2_exported

>  <distance_score>  (126) 
0.43097

>  <ref_pdb>  (126) 
x0502c

>  <alias>  (126) 
URLYBEQWLDTAML-UHFFFAOYSA-N-P11

>  <subsites>  (126) 


>  <smiles>  (126) 
Cc1[nH]nc(C(=O)OC2CCCC2)c1C(F)(F)F

>  <HIPPO Compound ID>  (126) 
37524

>  <ref_mols>  (126) 
x0421a

>  <energy_score>  (126) 
-33.160528

$$$$
HWGBOTZSHDRHLK-UHFFFAOYSA-N-P30
     RDKit          3D

 18 19  0  0  0  0  0  0  0  0999 V2000
    5.2914  -15.2346   26.9435 C   0  0  0  0  0  0  0  0  0  0  0  0
    3.9380  -14.6088   26.9814 C   0  0  0  0  0  0  0  0  0  0  0  0
    3.0770  -15.1654   27.8750 N   0  0  0  0  0  0  0  0  0  0  0  0
    1.7937  -14.7332   27.9483 N   0  0  0  0  0  0  0  0  0  0  0  0
    1.3820  -13.7717   27.1050 C   0  0  0  0  0  0  0  0  0  0  0  0
    2.2079  -13.1611   26.1939 C   0  0  0  0  0  0  0  0  0  0  0  0
    3.5361  -13.5711   26.1449 C   0  0  0  0  0  0  0  0  0  0  0  0
    4.4307  -12.9590   25.1221 C   0  0  0  0  0  0  0  0  0  0  0  0
    5.1150  -13.6658   24.4951 O   0  0  0  0  0  0  0  0  0  0  0  0
    4.1987  -11.4290   25.0138 N   0  0  0  0  0  0  0  0  0  0  0  0
    4.6722  -10.5064   24.0842 C   0  0  0  0  0  0  0  0  0  0  0  0
    5.0133  -10.9654   22.8113 C   0  0  0  0  0  0  0  0  0  0  0  0
    5.3873  -10.0601   21.8216 C   0  0  0  0  0  0  0  0  0  0  0  0
    5.5383   -8.7137   22.1199 C   0  0  0  0  0  0  0  0  0  0  0  0
    5.2690   -8.2694   23.4023 C   0  0  0  0  0  0  0  0  0  0  0  0
    5.4730   -6.9757   23.6905 F   0  0  0  0  0  0  0  0  0  0  0  0
    4.7542   -9.1363   24.3615 C   0  0  0  0  0  0  0  0  0  0  0  0
    4.2018   -8.4505   25.8353 Cl  0  0  0  0  0  0  0  0  0  0  0  0
  1  2  1  0
  2  3  2  0
  3  4  1  0
  4  5  2  0
  5  6  1  0
  6  7  2  0
  7  8  1  0
  8  9  2  0
  8 10  1  0
 10 11  1  0
 11 12  2  0
 12 13  1  0
 13 14  2  0
 14 15  1  0
 15 16  1  0
 15 17  2  0
 17 18  1  0
  7  2  1  0
 17 11  1  0
M  END
>  <placement_batch>  (127) 
CpKRS_FrAncestor_bulkdock_iter2_cluster_best5

>  <name>  (127) 
HWGBOTZSHDRHLK-UHFFFAOYSA-N-P30

>  <HIPPO Pose ID>  (127) 
57978

>  <inchikey>  (127) 
HWGBOTZSHDRHLK-UHFFFAOYSA-N

>  <inspiration_score>  (127) 
0.899

>  <tags>  (127) 
CpKRS_FrAncestor_bulkdock_iter2,CpKRS_FrAncestor_bulkdock_iter2_cluster_best5,BulkDock Fragalysis export,fragmenstein_placed,CpKRS_FrAncestor_bulkdock_iter2_exported

>  <distance_score>  (127) 
0.363812

>  <ref_pdb>  (127) 
x0502c

>  <alias>  (127) 
HWGBOTZSHDRHLK-UHFFFAOYSA-N-P30

>  <subsites>  (127) 


>  <smiles>  (127) 
Cc1nnccc1C(=O)Nc1cccc(F)c1Cl

>  <HIPPO Compound ID>  (127) 
37554

>  <ref_mols>  (127) 
x0485a

>  <energy_score>  (127) 
-14.969243

$$$$
WVEQIYKAHRNMHL-UHFFFAOYSA-N-P15
     RDKit          3D

 19 20  0  0  0  0  0  0  0  0999 V2000
    4.0941  -24.2451   16.6388 C   0  0  0  0  0  0  0  0  0  0  0  0
    3.4812  -25.0353   17.7152 C   0  0  0  0  0  0  0  0  0  0  0  0
    4.0651  -25.0431   18.9203 N   0  0  0  0  0  0  0  0  0  0  0  0
    3.2497  -25.8003   19.6649 N   0  0  0  0  0  0  0  0  0  0  0  0
    3.5008  -25.9273   21.0787 C   0  0  0  0  0  0  0  0  0  0  0  0
    2.2298  -26.3657   18.9527 C   0  0  0  0  0  0  0  0  0  0  0  0
    1.2586  -27.3112   19.5647 C   0  0  0  0  0  0  0  0  0  0  0  0
    2.3186  -25.8520   17.6650 C   0  0  0  0  0  0  0  0  0  0  0  0
    1.3811  -26.1907   16.5608 C   0  0  0  0  0  0  0  0  0  0  0  0
    1.4507  -25.3504   15.4034 N   0  0  0  0  0  0  0  0  0  0  0  0
    1.9640  -25.6453   13.9833 C   0  0  0  0  0  0  0  0  0  0  0  0
    2.4835  -26.5957   13.5492 O   0  0  0  0  0  0  0  0  0  0  0  0
    1.6435  -24.5526   12.9877 C   0  0  0  0  0  0  0  0  0  0  0  0
    2.0977  -24.7260   11.6671 C   0  0  0  0  0  0  0  0  0  0  0  0
    1.7324  -23.8390   10.6514 C   0  0  0  0  0  0  0  0  0  0  0  0
    0.9557  -22.7216   10.9408 C   0  0  0  0  0  0  0  0  0  0  0  0
    0.5039  -22.5287   12.2429 C   0  0  0  0  0  0  0  0  0  0  0  0
    0.8289  -23.4486   13.2470 C   0  0  0  0  0  0  0  0  0  0  0  0
    0.2975  -23.2505   14.4621 F   0  0  0  0  0  0  0  0  0  0  0  0
  1  2  1  0
  2  3  2  0
  3  4  1  0
  4  5  1  0
  4  6  1  0
  6  7  1  0
  6  8  2  0
  8  9  1  0
  9 10  1  0
 10 11  1  0
 11 12  2  0
 11 13  1  0
 13 14  2  0
 14 15  1  0
 15 16  2  0
 16 17  1  0
 17 18  2  0
 18 19  1  0
  8  2  1  0
 18 13  1  0
M  END
>  <placement_batch>  (128) 
CpKRS_FrAncestor_bulkdock_iter2_cluster_best5

>  <name>  (128) 
WVEQIYKAHRNMHL-UHFFFAOYSA-N-P15

>  <HIPPO Pose ID>  (128) 
58137

>  <inchikey>  (128) 
WVEQIYKAHRNMHL-UHFFFAOYSA-N

>  <inspiration_score>  (128) 
0.598

>  <tags>  (128) 
CpKRS_FrAncestor_bulkdock_iter2,CpKRS_FrAncestor_bulkdock_iter2_cluster_best5,BulkDock Fragalysis export,fragmenstein_placed,CpKRS_FrAncestor_bulkdock_iter2_exported

>  <distance_score>  (128) 
0.968108

>  <ref_pdb>  (128) 
x0502c

>  <alias>  (128) 
WVEQIYKAHRNMHL-UHFFFAOYSA-N-P15

>  <subsites>  (128) 


>  <smiles>  (128) 
Cc1nn(C)c(C)c1CNC(=O)c1ccccc1F

>  <HIPPO Compound ID>  (128) 
37591

>  <ref_mols>  (128) 
x0426b

>  <energy_score>  (128) 
-7.859306

$$$$
SDQLSEUASWRYLN-UHFFFAOYSA-N-P63
     RDKit          3D

 17 18  0  0  0  0  0  0  0  0999 V2000
    5.9490   -7.2075   24.1086 C   0  0  0  0  0  0  0  0  0  0  0  0
    5.2683   -8.4958   23.8444 C   0  0  0  0  0  0  0  0  0  0  0  0
    4.5192   -9.0529   24.7950 N   0  0  0  0  0  0  0  0  0  0  0  0
    4.2930  -10.2854   24.3326 N   0  0  0  0  0  0  0  0  0  0  0  0
    4.7317  -10.5045   23.0624 C   0  0  0  0  0  0  0  0  0  0  0  0
    4.6457  -11.8453   22.4116 C   0  0  0  0  0  0  0  0  0  0  0  0
    4.0512  -12.7349   23.3583 N   0  0  0  0  0  0  0  0  0  0  0  0
    4.6620  -13.4561   24.5724 C   0  0  0  0  0  0  0  0  0  0  0  0
    5.7627  -13.5004   24.9481 O   0  0  0  0  0  0  0  0  0  0  0  0
    3.5849  -14.0714   25.3523 C   0  0  0  0  0  0  0  0  0  0  0  0
    2.2587  -13.6744   25.4778 C   0  0  0  0  0  0  0  0  0  0  0  0
    1.5480  -14.4480   26.4354 C   0  0  0  0  0  0  0  0  0  0  0  0
    2.3652  -15.3913   26.9932 C   0  0  0  0  0  0  0  0  0  0  0  0
    1.9161  -16.5197   28.1879 Cl  0  0  0  0  0  0  0  0  0  0  0  0
    3.9480  -15.3675   26.4167 S   0  0  0  0  0  0  0  0  0  0  0  0
    5.2593   -9.2916   22.6675 C   0  0  0  0  0  0  0  0  0  0  0  0
    5.7705   -8.9520   21.3373 C   0  0  0  0  0  0  0  0  0  0  0  0
  1  2  1  0
  2  3  2  0
  3  4  1  0
  4  5  1  0
  5  6  1  0
  6  7  1  0
  7  8  1  0
  8  9  2  0
  8 10  1  0
 10 11  2  0
 11 12  1  0
 12 13  2  0
 13 14  1  0
 13 15  1  0
  5 16  2  0
 16 17  1  0
 16  2  1  0
 15 10  1  0
M  END
>  <placement_batch>  (129) 
CpKRS_FrAncestor_bulkdock_iter2_cluster_best5

>  <name>  (129) 
SDQLSEUASWRYLN-UHFFFAOYSA-N-P63

>  <HIPPO Pose ID>  (129) 
58303

>  <inchikey>  (129) 
SDQLSEUASWRYLN-UHFFFAOYSA-N

>  <inspiration_score>  (129) 
0.813

>  <tags>  (129) 
CpKRS_FrAncestor_bulkdock_iter2,CpKRS_FrAncestor_bulkdock_iter2_cluster_best5,BulkDock Fragalysis export,fragmenstein_placed,CpKRS_FrAncestor_bulkdock_iter2_exported

>  <distance_score>  (129) 
0.609107

>  <ref_pdb>  (129) 
x0502c

>  <alias>  (129) 
SDQLSEUASWRYLN-UHFFFAOYSA-N-P63

>  <subsites>  (129) 


>  <smiles>  (129) 
Cc1n[nH]c(CNC(=O)c2ccc(Cl)s2)c1C

>  <HIPPO Compound ID>  (129) 
37631

>  <ref_mols>  (129) 
x0787a

>  <energy_score>  (129) 
-11.012671

$$$$
DRRZWVNBDVGMGR-UHFFFAOYSA-N-P46
     RDKit          3D

 15 16  0  0  0  0  0  0  0  0999 V2000
    4.4661  -15.5795   27.0060 C   0  0  0  0  0  0  0  0  0  0  0  0
    3.3055  -14.6812   26.8012 C   0  0  0  0  0  0  0  0  0  0  0  0
    2.2125  -14.8327   27.6532 N   0  0  0  0  0  0  0  0  0  0  0  0
    1.2380  -13.9912   27.3603 N   0  0  0  0  0  0  0  0  0  0  0  0
    1.5927  -13.0241   26.0504 S   0  0  0  0  0  0  0  0  0  0  0  0
    3.1579  -13.6920   25.8379 C   0  0  0  0  0  0  0  0  0  0  0  0
    4.0792  -13.2236   24.8346 C   0  0  0  0  0  0  0  0  0  0  0  0
    5.2822  -13.4594   24.7974 O   0  0  0  0  0  0  0  0  0  0  0  0
    3.4440  -12.4294   23.9200 O   0  0  0  0  0  0  0  0  0  0  0  0
    4.2353  -11.9048   22.8408 C   0  0  0  0  0  0  0  0  0  0  0  0
    4.9062  -10.6111   23.2590 C   0  0  2  0  0  0  0  0  0  0  0  0
    4.0281   -9.6792   24.0585 C   0  0  0  0  0  0  0  0  0  0  0  0
    4.8321   -8.4088   23.9771 C   0  0  0  0  0  0  0  0  0  0  0  0
    5.3567   -8.3658   22.6444 O   0  0  0  0  0  0  0  0  0  0  0  0
    5.3259   -9.7046   22.1136 C   0  0  0  0  0  0  0  0  0  0  0  0
  1  2  1  0
  2  3  1  0
  3  4  2  0
  4  5  1  0
  5  6  1  0
  6  7  1  0
  7  8  2  0
  7  9  1  0
  9 10  1  0
 11 10  1  6
 11 12  1  0
 12 13  1  0
 13 14  1  0
 14 15  1  0
  6  2  2  0
 15 11  1  0
M  END
>  <placement_batch>  (130) 
CpKRS_FrAncestor_bulkdock_iter2_cluster_best5

>  <name>  (130) 
DRRZWVNBDVGMGR-UHFFFAOYSA-N-P46

>  <HIPPO Pose ID>  (130) 
58405

>  <inchikey>  (130) 
DRRZWVNBDVGMGR-UHFFFAOYSA-N

>  <inspiration_score>  (130) 
0.78

>  <tags>  (130) 
CpKRS_FrAncestor_bulkdock_iter2,CpKRS_FrAncestor_bulkdock_iter2_cluster_best5,BulkDock Fragalysis export,fragmenstein_placed,CpKRS_FrAncestor_bulkdock_iter2_exported

>  <distance_score>  (130) 
0.273978

>  <ref_pdb>  (130) 
x0502c

>  <alias>  (130) 
DRRZWVNBDVGMGR-UHFFFAOYSA-N-P46

>  <subsites>  (130) 


>  <smiles>  (130) 
Cc1nnsc1C(=O)OCC1CCOC1

>  <HIPPO Compound ID>  (130) 
37659

>  <ref_mols>  (130) 
x0502c

>  <energy_score>  (130) 
-70.823933

$$$$
KFYICQZKGPCAMW-UHFFFAOYSA-N-P47
     RDKit          3D

 17 17  0  0  0  0  0  0  0  0999 V2000
    4.3037    2.4710   44.0354 C   0  0  0  0  0  0  0  0  0  0  0  0
    3.5564    3.3522   44.9743 C   0  0  0  0  0  0  0  0  0  0  0  0
    3.5111    3.0002   46.3190 N   0  0  0  0  0  0  0  0  0  0  0  0
    2.7911    3.8533   47.0267 N   0  0  0  0  0  0  0  0  0  0  0  0
    2.1871    5.1113   46.1106 S   0  0  0  0  0  0  0  0  0  0  0  0
    2.8519    4.5088   44.6583 C   0  0  0  0  0  0  0  0  0  0  0  0
    2.5875    5.0813   43.3508 C   0  0  0  0  0  0  0  0  0  0  0  0
    2.5989    4.3680   42.4340 O   0  0  0  0  0  0  0  0  0  0  0  0
    2.3096    6.5852   43.4350 N   0  0  0  0  0  0  0  0  0  0  0  0
    2.0778    7.5566   42.3914 C   0  0  0  0  0  0  0  0  0  0  0  0
    3.4154    8.0029   41.8285 C   0  0  0  0  0  0  0  0  0  0  0  0
    4.4371    8.0823   42.4999 O   0  0  0  0  0  0  0  0  0  0  0  0
    3.2950    8.3040   40.5074 O   0  0  0  0  0  0  0  0  0  0  0  0
    4.4679    8.5965   39.7009 C   0  0  0  0  0  0  0  0  0  0  0  0
    5.1744    9.8667   40.1799 C   0  0  0  0  0  0  0  0  0  0  0  0
    3.9199    8.8467   38.2877 C   0  0  0  0  0  0  0  0  0  0  0  0
    5.4158    7.3929   39.6500 C   0  0  0  0  0  0  0  0  0  0  0  0
  1  2  1  0
  2  3  1  0
  3  4  2  0
  4  5  1  0
  5  6  1  0
  6  7  1  0
  7  8  2  0
  7  9  1  0
  9 10  1  0
 10 11  1  0
 11 12  2  0
 11 13  1  0
 13 14  1  0
 14 15  1  0
 14 16  1  0
 14 17  1  0
  6  2  2  0
M  END
>  <placement_batch>  (131) 
CpKRS_FrAncestor_bulkdock_iter2_cluster_best5

>  <name>  (131) 
KFYICQZKGPCAMW-UHFFFAOYSA-N-P47

>  <HIPPO Pose ID>  (131) 
58432

>  <inchikey>  (131) 
KFYICQZKGPCAMW-UHFFFAOYSA-N

>  <inspiration_score>  (131) 
0.807

>  <tags>  (131) 
CpKRS_FrAncestor_bulkdock_iter2,CpKRS_FrAncestor_bulkdock_iter2_cluster_best5,BulkDock Fragalysis export,fragmenstein_placed,CpKRS_FrAncestor_bulkdock_iter2_exported

>  <distance_score>  (131) 
0.519885

>  <ref_pdb>  (131) 
x0502c

>  <alias>  (131) 
KFYICQZKGPCAMW-UHFFFAOYSA-N-P47

>  <subsites>  (131) 


>  <smiles>  (131) 
Cc1nnsc1C(=O)NCC(=O)OC(C)(C)C

>  <HIPPO Compound ID>  (131) 
37666

>  <ref_mols>  (131) 
x0504c

>  <energy_score>  (131) 
-65.59018

$$$$
OVFZAEACWZGJPX-UHFFFAOYSA-N-P55
     RDKit          3D

 18 19  0  0  0  0  0  0  0  0999 V2000
    2.7787  -17.0995   27.5586 C   0  0  0  0  0  0  0  0  0  0  0  0
    2.7209  -15.7897   28.3262 C   0  0  0  0  0  0  0  0  0  0  0  0
    1.3692  -15.4482   28.9654 C   0  0  0  0  0  0  0  0  0  0  0  0
    3.7556  -15.9446   29.4338 C   0  0  0  0  0  0  0  0  0  0  0  0
    3.0899  -14.7839   27.3096 C   0  0  0  0  0  0  0  0  0  0  0  0
    4.2246  -14.6481   26.5627 C   0  0  0  0  0  0  0  0  0  0  0  0
    3.8480  -13.7706   25.5386 C   0  0  0  0  0  0  0  0  0  0  0  0
    4.7028  -13.4071   24.4273 C   0  0  0  0  0  0  0  0  0  0  0  0
    5.7889  -13.8125   24.3784 O   0  0  0  0  0  0  0  0  0  0  0  0
    3.9500  -12.4891   23.4800 N   0  0  0  0  0  0  0  0  0  0  0  0
    4.3905  -11.7953   22.3213 C   0  0  0  0  0  0  0  0  0  0  0  0
    4.7365  -10.3962   22.7214 C   0  0  0  0  0  0  0  0  0  0  0  0
    4.6572   -9.8963   23.9426 N   0  0  0  0  0  0  0  0  0  0  0  0
    5.0725   -8.5845   23.9413 C   0  0  0  0  0  0  0  0  0  0  0  0
    5.4030   -8.0785   22.7066 C   0  0  0  0  0  0  0  0  0  0  0  0
    5.2634   -9.2952   21.5186 S   0  0  0  0  0  0  0  0  0  0  0  0
    2.5933  -13.3162   25.7008 N   0  0  0  0  0  0  0  0  0  0  0  0
    2.1170  -13.9730   26.8196 O   0  0  0  0  0  0  0  0  0  0  0  0
  1  2  1  0
  2  3  1  0
  2  4  1  0
  2  5  1  0
  5  6  2  0
  6  7  1  0
  7  8  1  0
  8  9  2  0
  8 10  1  0
 10 11  1  0
 11 12  1  0
 12 13  2  0
 13 14  1  0
 14 15  2  0
 15 16  1  0
  7 17  2  0
 17 18  1  0
 18  5  1  0
 16 12  1  0
M  END
>  <placement_batch>  (132) 
CpKRS_FrAncestor_bulkdock_iter2_cluster_best5

>  <name>  (132) 
OVFZAEACWZGJPX-UHFFFAOYSA-N-P55

>  <HIPPO Pose ID>  (132) 
58714

>  <inchikey>  (132) 
OVFZAEACWZGJPX-UHFFFAOYSA-N

>  <inspiration_score>  (132) 
0.748

>  <tags>  (132) 
CpKRS_FrAncestor_bulkdock_iter2,CpKRS_FrAncestor_bulkdock_iter2_cluster_best5,BulkDock Fragalysis export,fragmenstein_placed,CpKRS_FrAncestor_bulkdock_iter2_exported

>  <distance_score>  (132) 
0.725394

>  <ref_pdb>  (132) 
x0646a

>  <alias>  (132) 
OVFZAEACWZGJPX-UHFFFAOYSA-N-P55

>  <subsites>  (132) 


>  <smiles>  (132) 
CC(C)(C)c1cc(C(=O)NCc2nccs2)no1

>  <HIPPO Compound ID>  (132) 
219708

>  <ref_mols>  (132) 
x0646a

>  <energy_score>  (132) 
-62.903812

$$$$
RSJZZCKAEUBQGV-UHFFFAOYSA-N-P4
     RDKit          3D

 17 18  0  0  0  0  0  0  0  0999 V2000
    2.6632  -15.8847   28.9283 C   0  0  0  0  0  0  0  0  0  0  0  0
    2.2201  -16.0144   27.4654 C   0  0  0  0  0  0  0  0  0  0  0  0
    0.7734  -16.5169   27.3522 C   0  0  0  0  0  0  0  0  0  0  0  0
    3.1682  -17.0171   26.8026 C   0  0  0  0  0  0  0  0  0  0  0  0
    2.2728  -14.6803   26.7906 C   0  0  0  0  0  0  0  0  0  0  0  0
    3.1045  -14.1725   25.8248 C   0  0  0  0  0  0  0  0  0  0  0  0
    2.6275  -12.8757   25.5771 C   0  0  0  0  0  0  0  0  0  0  0  0
    3.2573  -11.9762   24.7950 N   0  0  0  0  0  0  0  0  0  0  0  0
    4.5292  -12.1123   23.9394 C   0  0  0  0  0  0  0  0  0  0  0  0
    5.1922  -13.0450   23.7130 O   0  0  0  0  0  0  0  0  0  0  0  0
    4.9540  -10.7510   23.4251 C   0  0  1  0  0  0  0  0  0  0  0  0
    5.0529  -10.8089   21.9149 C   0  0  0  0  0  0  0  0  0  0  0  0
    5.3398   -9.3961   21.4640 C   0  0  0  0  0  0  0  0  0  0  0  0
    4.4058   -8.4653   22.2039 C   0  0  0  0  0  0  0  0  0  0  0  0
    3.8744   -9.3282   23.7015 S   0  0  0  0  0  0  0  0  0  0  0  0
    1.5283  -12.5918   26.2764 N   0  0  0  0  0  0  0  0  0  0  0  0
    1.3835  -13.6761   27.0496 N   0  0  0  0  0  0  0  0  0  0  0  0
  1  2  1  0
  2  3  1  0
  2  4  1  0
  2  5  1  0
  5  6  2  0
  6  7  1  0
  7  8  1  0
  8  9  1  0
  9 10  2  0
 11  9  1  6
 11 12  1  0
 12 13  1  0
 13 14  1  0
 14 15  1  0
  7 16  2  0
 16 17  1  0
 17  5  1  0
 15 11  1  0
M  END
>  <placement_batch>  (133) 
CpKRS_FrAncestor_bulkdock_iter2_cluster_best5

>  <name>  (133) 
RSJZZCKAEUBQGV-UHFFFAOYSA-N-P4

>  <HIPPO Pose ID>  (133) 
58715

>  <inchikey>  (133) 
RSJZZCKAEUBQGV-UHFFFAOYSA-N

>  <inspiration_score>  (133) 
0.714

>  <tags>  (133) 
CpKRS_FrAncestor_bulkdock_iter2,CpKRS_FrAncestor_bulkdock_iter2_cluster_best5,BulkDock Fragalysis export,fragmenstein_placed,CpKRS_FrAncestor_bulkdock_iter2_exported

>  <distance_score>  (133) 
0.6055

>  <ref_pdb>  (133) 
x0646a

>  <alias>  (133) 
RSJZZCKAEUBQGV-UHFFFAOYSA-N-P4

>  <subsites>  (133) 


>  <smiles>  (133) 
CC(C)(C)c1cc(NC(=O)C2CCCS2)n[nH]1

>  <HIPPO Compound ID>  (133) 
251276

>  <ref_mols>  (133) 
x0407a

>  <energy_score>  (133) 
-35.85289

$$$$
DCFRLLOEGZBAGE-UHFFFAOYSA-N-P4
     RDKit          3D

 17 18  0  0  0  0  0  0  0  0999 V2000
    0.7569  -16.4810   27.3855 C   0  0  0  0  0  0  0  0  0  0  0  0
    2.2135  -16.0038   27.4820 C   0  0  0  0  0  0  0  0  0  0  0  0
    2.6535  -15.8398   28.9422 C   0  0  0  0  0  0  0  0  0  0  0  0
    3.1337  -17.0573   26.8550 C   0  0  0  0  0  0  0  0  0  0  0  0
    2.2563  -14.6650   26.7957 C   0  0  0  0  0  0  0  0  0  0  0  0
    1.3032  -13.7482   26.8900 N   0  0  0  0  0  0  0  0  0  0  0  0
    1.5694  -12.6387   26.1062 N   0  0  0  0  0  0  0  0  0  0  0  0
    2.7122  -12.7769   25.4787 C   0  0  0  0  0  0  0  0  0  0  0  0
    3.3326  -11.8793   24.6879 N   0  0  0  0  0  0  0  0  0  0  0  0
    4.6188  -12.0050   23.8499 C   0  0  0  0  0  0  0  0  0  0  0  0
    5.3030  -12.9265   23.6496 O   0  0  0  0  0  0  0  0  0  0  0  0
    4.9605  -10.6219   23.3220 C   0  0  1  0  0  0  0  0  0  0  0  0
    5.1346  -10.7352   21.8286 C   0  0  0  0  0  0  0  0  0  0  0  0
    5.1755   -9.2960   21.4227 C   0  0  0  0  0  0  0  0  0  0  0  0
    4.2461   -8.6467   22.4206 C   0  0  0  0  0  0  0  0  0  0  0  0
    4.0110   -9.5726   23.4922 O   0  0  0  0  0  0  0  0  0  0  0  0
    3.5611  -14.2051   25.8037 S   0  0  0  0  0  0  0  0  0  0  0  0
  1  2  1  0
  2  3  1  0
  2  4  1  0
  2  5  1  0
  5  6  2  0
  6  7  1  0
  7  8  2  0
  8  9  1  0
  9 10  1  0
 10 11  2  0
 12 10  1  6
 12 13  1  0
 13 14  1  0
 14 15  1  0
 15 16  1  0
  8 17  1  0
 17  5  1  0
 16 12  1  0
M  END
>  <placement_batch>  (134) 
CpKRS_FrAncestor_bulkdock_iter2_cluster_best5

>  <name>  (134) 
DCFRLLOEGZBAGE-UHFFFAOYSA-N-P4

>  <HIPPO Pose ID>  (134) 
58775

>  <inchikey>  (134) 
DCFRLLOEGZBAGE-UHFFFAOYSA-N

>  <inspiration_score>  (134) 
0.888

>  <tags>  (134) 
CpKRS_FrAncestor_bulkdock_iter2,CpKRS_FrAncestor_bulkdock_iter2_cluster_best5,BulkDock Fragalysis export,fragmenstein_placed,CpKRS_FrAncestor_bulkdock_iter2_exported

>  <distance_score>  (134) 
0.56413

>  <ref_pdb>  (134) 
x0646a

>  <alias>  (134) 
DCFRLLOEGZBAGE-UHFFFAOYSA-N-P4

>  <subsites>  (134) 


>  <smiles>  (134) 
CC(C)(C)c1nnc(NC(=O)C2CCCO2)s1

>  <HIPPO Compound ID>  (134) 
159980

>  <ref_mols>  (134) 
x0407a

>  <energy_score>  (134) 
-85.499287

$$$$
PSCVLRFYCGIGGU-UHFFFAOYSA-N-P39
     RDKit          3D

 18 18  0  0  0  0  0  0  0  0999 V2000
   -2.1693  -20.3414   22.5744 C   0  0  0  0  0  0  0  0  0  0  0  0
   -1.2346  -19.2436   22.8139 C   0  0  0  0  0  0  0  0  0  0  0  0
   -0.4421  -18.3576   22.9820 C   0  0  0  0  0  0  0  0  0  0  0  0
    0.5808  -17.2114   23.0748 C   0  0  0  0  0  0  0  0  0  0  0  0
    1.3383  -16.2890   22.9480 C   0  0  0  0  0  0  0  0  0  0  0  0
    2.1431  -15.1712   22.5085 C   0  0  0  0  0  0  0  0  0  0  0  0
    2.1260  -14.9512   21.3639 O   0  0  0  0  0  0  0  0  0  0  0  0
    2.8302  -14.4121   23.6627 N   0  0  0  0  0  0  0  0  0  0  0  0
    3.5412  -13.2046   23.6618 C   0  0  0  0  0  0  0  0  0  0  0  0
    3.9565  -12.6373   22.4677 C   0  0  0  0  0  0  0  0  0  0  0  0
    4.5642  -11.3757   22.4310 C   0  0  0  0  0  0  0  0  0  0  0  0
    4.7174  -10.5882   23.5767 C   0  0  0  0  0  0  0  0  0  0  0  0
    5.1267   -9.2454   23.5068 N   0  0  0  0  0  0  0  0  0  0  0  0
    5.8054   -8.7099   24.6871 C   0  0  0  0  0  0  0  0  0  0  0  0
    5.6280   -8.7256   22.2339 C   0  0  0  0  0  0  0  0  0  0  0  0
    4.3588  -11.2071   24.7891 C   0  0  0  0  0  0  0  0  0  0  0  0
    3.8110  -12.5041   24.8350 C   0  0  0  0  0  0  0  0  0  0  0  0
    3.4040  -13.1679   26.3721 Cl  0  0  0  0  0  0  0  0  0  0  0  0
  1  2  1  0
  2  3  3  0
  3  4  1  0
  4  5  3  0
  5  6  1  0
  6  7  2  0
  6  8  1  0
  8  9  1  0
  9 10  2  0
 10 11  1  0
 11 12  2  0
 12 13  1  0
 13 14  1  0
 13 15  1  0
 12 16  1  0
 16 17  2  0
 17 18  1  0
 17  9  1  0
M  END
>  <placement_batch>  (135) 
CpKRS_FrAncestor_bulkdock_iter2_cluster_best5

>  <name>  (135) 
PSCVLRFYCGIGGU-UHFFFAOYSA-N-P39

>  <HIPPO Pose ID>  (135) 
58987

>  <inchikey>  (135) 
PSCVLRFYCGIGGU-UHFFFAOYSA-N

>  <inspiration_score>  (135) 
0.431

>  <tags>  (135) 
CpKRS_FrAncestor_bulkdock_iter2,CpKRS_FrAncestor_bulkdock_iter2_cluster_best5,BulkDock Fragalysis export,fragmenstein_placed,CpKRS_FrAncestor_bulkdock_iter2_exported

>  <distance_score>  (135) 
0.745139

>  <ref_pdb>  (135) 
x0646a

>  <alias>  (135) 
PSCVLRFYCGIGGU-UHFFFAOYSA-N-P39

>  <subsites>  (135) 


>  <smiles>  (135) 
CC#CC#CC(=O)Nc1ccc(N(C)C)cc1Cl

>  <HIPPO Compound ID>  (135) 
353403

>  <ref_mols>  (135) 
x0602a

>  <energy_score>  (135) 
-21.107621

$$$$
ZNXSNBLLFHUJHW-UHFFFAOYSA-N-P59
     RDKit          3D

 19 20  0  0  0  0  0  0  0  0999 V2000
   -1.3549  -22.9339   14.0937 C   0  0  0  0  0  0  0  0  0  0  0  0
   -0.3577  -23.7648   13.3040 C   0  0  0  0  0  0  0  0  0  0  0  0
    0.3349  -24.7285   14.1685 C   0  0  0  0  0  0  0  0  0  0  0  0
    0.9173  -25.4729   14.9110 C   0  0  0  0  0  0  0  0  0  0  0  0
    1.6717  -26.3242   15.8465 C   0  0  0  0  0  0  0  0  0  0  0  0
    1.7991  -25.7203   17.1708 N   0  0  0  0  0  0  0  0  0  0  0  0
    2.4621  -24.4014   17.1501 C   0  0  0  0  0  0  0  0  0  0  0  0
    3.4610  -24.1320   18.3011 C   0  0  0  0  0  0  0  0  0  0  0  0
    2.9851  -24.6036   19.6049 N   0  0  0  0  0  0  0  0  0  0  0  0
    3.9338  -24.4129   20.6980 C   0  0  0  0  0  0  0  0  0  0  0  0
    4.3121  -22.9744   20.9324 C   0  0  0  0  0  0  0  0  0  0  0  0
    5.4807  -22.4176   20.3860 C   0  0  0  0  0  0  0  0  0  0  0  0
    5.8216  -21.0927   20.6501 C   0  0  0  0  0  0  0  0  0  0  0  0
    4.9958  -20.3162   21.4548 C   0  0  0  0  0  0  0  0  0  0  0  0
    3.8509  -20.8659   22.0199 C   0  0  0  0  0  0  0  0  0  0  0  0
    2.9010  -19.9339   23.0991 Cl  0  0  0  0  0  0  0  0  0  0  0  0
    3.4862  -22.1765   21.7348 C   0  0  0  0  0  0  0  0  0  0  0  0
    2.5024  -25.9956   19.5581 C   0  0  0  0  0  0  0  0  0  0  0  0
    2.4174  -26.6178   18.1470 C   0  0  0  0  0  0  0  0  0  0  0  0
  1  2  1  0
  2  3  1  0
  3  4  3  0
  4  5  1  0
  5  6  1  0
  6  7  1  0
  7  8  1  0
  8  9  1  0
  9 10  1  0
 10 11  1  0
 11 12  2  0
 12 13  1  0
 13 14  2  0
 14 15  1  0
 15 16  1  0
 15 17  2  0
  9 18  1  0
 18 19  1  0
 19  6  1  0
 17 11  1  0
M  END
>  <placement_batch>  (136) 
CpKRS_FrAncestor_bulkdock_iter2_cluster_best5

>  <name>  (136) 
ZNXSNBLLFHUJHW-UHFFFAOYSA-N-P59

>  <HIPPO Pose ID>  (136) 
59119

>  <inchikey>  (136) 
ZNXSNBLLFHUJHW-UHFFFAOYSA-N

>  <inspiration_score>  (136) 
0.908

>  <tags>  (136) 
CpKRS_FrAncestor_bulkdock_iter2,CpKRS_FrAncestor_bulkdock_iter2_cluster_best5,BulkDock Fragalysis export,fragmenstein_placed,CpKRS_FrAncestor_bulkdock_iter2_exported

>  <distance_score>  (136) 
0.447121

>  <ref_pdb>  (136) 
x0646a

>  <alias>  (136) 
ZNXSNBLLFHUJHW-UHFFFAOYSA-N-P59

>  <subsites>  (136) 


>  <smiles>  (136) 
CCC#CCN1CCN(Cc2cccc(Cl)c2)CC1

>  <HIPPO Compound ID>  (136) 
369763

>  <ref_mols>  (136) 
x0675a

>  <energy_score>  (136) 
-31.133912

$$$$
CTGHBKUKVGHENO-UHFFFAOYSA-N-P7
     RDKit          3D

 15 15  0  0  0  0  0  0  0  0999 V2000
    3.9162  -18.0357   25.0921 C   0  0  0  0  0  0  0  0  0  0  0  0
    2.4723  -17.6077   24.8876 C   0  0  0  0  0  0  0  0  0  0  0  0
    2.2212  -16.3320   25.5697 C   0  0  0  0  0  0  0  0  0  0  0  0
    2.1024  -15.2581   26.0954 C   0  0  0  0  0  0  0  0  0  0  0  0
    2.0388  -13.8917   26.6434 C   0  0  0  0  0  0  0  0  0  0  0  0
    3.2993  -13.1418   26.4235 N   0  0  0  0  0  0  0  0  0  0  0  0
    3.1105  -11.7628   26.9215 C   0  0  0  0  0  0  0  0  0  0  0  0
    4.2214  -10.7688   26.5027 C   0  0  0  0  0  0  0  0  0  0  0  0
    4.3860  -10.7460   25.0253 N   0  0  0  0  0  0  0  0  0  0  0  0
    5.3320   -9.7076   24.5477 C   0  0  1  0  0  0  0  0  0  0  0  0
    5.5987   -9.8191   23.0311 C   0  0  0  0  0  0  0  0  0  0  0  0
    4.6751   -8.3184   24.7360 C   0  0  0  0  0  0  0  0  0  0  0  0
    3.3678   -8.3477   24.1222 O   0  0  0  0  0  0  0  0  0  0  0  0
    4.7369  -12.1195   24.6184 C   0  0  0  0  0  0  0  0  0  0  0  0
    3.6186  -13.1094   24.9856 C   0  0  0  0  0  0  0  0  0  0  0  0
  1  2  1  0
  2  3  1  0
  3  4  3  0
  4  5  1  0
  5  6  1  0
  6  7  1  0
  7  8  1  0
  8  9  1  0
  9 10  1  0
 10 11  1  6
 10 12  1  0
 12 13  1  0
  9 14  1  0
 14 15  1  0
 15  6  1  0
M  END
>  <placement_batch>  (137) 
CpKRS_FrAncestor_bulkdock_iter2_cluster_best5

>  <name>  (137) 
CTGHBKUKVGHENO-UHFFFAOYSA-N-P7

>  <HIPPO Pose ID>  (137) 
59142

>  <inchikey>  (137) 
CTGHBKUKVGHENO-UHFFFAOYSA-N

>  <inspiration_score>  (137) 
0.493

>  <tags>  (137) 
CpKRS_FrAncestor_bulkdock_iter2,CpKRS_FrAncestor_bulkdock_iter2_cluster_best5,BulkDock Fragalysis export,fragmenstein_placed,CpKRS_FrAncestor_bulkdock_iter2_exported

>  <distance_score>  (137) 
0.862155

>  <ref_pdb>  (137) 
x0646a

>  <alias>  (137) 
CTGHBKUKVGHENO-UHFFFAOYSA-N-P7

>  <subsites>  (137) 


>  <smiles>  (137) 
CCC#CCN1CCN(C(C)CO)CC1

>  <HIPPO Compound ID>  (137) 
446447

>  <ref_mols>  (137) 
x0414b

>  <energy_score>  (137) 
-52.118678

$$$$
UMIYFISMYQEUBL-UHFFFAOYSA-N-P40
     RDKit          3D

 16 16  0  0  0  0  0  0  0  0999 V2000
   -0.6878  -14.6795   24.8780 C   0  0  0  0  0  0  0  0  0  0  0  0
    0.8036  -14.4949   24.7781 C   0  0  0  0  0  0  0  0  0  0  0  0
    1.1827  -13.3803   23.8349 C   0  0  0  0  0  0  0  0  0  0  0  0
    1.6911  -15.2873   25.4309 C   0  0  0  0  0  0  0  0  0  0  0  0
    1.3075  -16.5346   26.1620 C   0  0  0  0  0  0  0  0  0  0  0  0
    3.1852  -15.0760   25.4194 C   0  0  0  0  0  0  0  0  0  0  0  0
    3.9289  -15.9235   25.1362 O   0  0  0  0  0  0  0  0  0  0  0  0
    3.4463  -13.6278   25.8575 N   0  0  0  0  0  0  0  0  0  0  0  0
    4.6700  -12.8899   25.9486 C   0  0  0  0  0  0  0  0  0  0  0  0
    4.8427  -12.0570   24.7067 C   0  0  0  0  0  0  0  0  0  0  0  0
    4.7550  -12.6534   23.4398 C   0  0  0  0  0  0  0  0  0  0  0  0
    4.8616  -11.8873   22.2850 C   0  0  0  0  0  0  0  0  0  0  0  0
    5.1120  -10.5236   22.3771 C   0  0  0  0  0  0  0  0  0  0  0  0
    5.2979   -9.9249   23.6236 C   0  0  0  0  0  0  0  0  0  0  0  0
    5.4804   -8.5336   23.7059 N   0  0  0  0  0  0  0  0  0  0  0  0
    5.1016  -10.6824   24.7842 C   0  0  0  0  0  0  0  0  0  0  0  0
  1  2  1  0
  2  3  1  0
  2  4  2  3
  4  5  1  0
  4  6  1  0
  6  7  2  0
  6  8  1  0
  8  9  1  0
  9 10  1  0
 10 11  2  0
 11 12  1  0
 12 13  2  0
 13 14  1  0
 14 15  1  0
 14 16  2  0
 16 10  1  0
M  END
>  <placement_batch>  (138) 
CpKRS_FrAncestor_bulkdock_iter2_cluster_best5

>  <name>  (138) 
UMIYFISMYQEUBL-UHFFFAOYSA-N-P40

>  <HIPPO Pose ID>  (138) 
59378

>  <inchikey>  (138) 
UMIYFISMYQEUBL-UHFFFAOYSA-N

>  <inspiration_score>  (138) 
0.737

>  <tags>  (138) 
CpKRS_FrAncestor_bulkdock_iter2,CpKRS_FrAncestor_bulkdock_iter2_cluster_best5,BulkDock Fragalysis export,fragmenstein_placed,CpKRS_FrAncestor_bulkdock_iter2_exported

>  <distance_score>  (138) 
0.559373

>  <ref_pdb>  (138) 
x0646a

>  <alias>  (138) 
UMIYFISMYQEUBL-UHFFFAOYSA-N-P40

>  <subsites>  (138) 


>  <smiles>  (138) 
CC(C)=C(C)C(=O)NCc1cccc(N)c1

>  <HIPPO Compound ID>  (138) 
446487

>  <ref_mols>  (138) 
x0602b

>  <energy_score>  (138) 
-24.341743

$$$$
RAIMFUMWMGSZSU-UHFFFAOYSA-N-P39
     RDKit          3D

 16 16  0  0  0  0  0  0  0  0999 V2000
    0.5585  -17.5253   23.2463 C   0  0  0  0  0  0  0  0  0  0  0  0
    1.3023  -16.7808   24.3177 C   0  0  0  0  0  0  0  0  0  0  0  0
    0.6289  -15.5393   24.8304 C   0  0  0  0  0  0  0  0  0  0  0  0
    2.5085  -17.1177   24.6905 C   0  0  0  0  0  0  0  0  0  0  0  0
    3.7171  -17.4346   25.0553 C   0  0  0  0  0  0  0  0  0  0  0  0
    4.7497  -16.4760   25.5579 C   0  0  0  0  0  0  0  0  0  0  0  0
    5.7571  -16.8818   25.9804 O   0  0  0  0  0  0  0  0  0  0  0  0
    4.2487  -15.0323   25.3899 N   0  0  0  0  0  0  0  0  0  0  0  0
    4.8397  -13.7865   25.7920 C   0  0  0  0  0  0  0  0  0  0  0  0
    4.6951  -12.7329   24.7141 C   0  0  0  0  0  0  0  0  0  0  0  0
    5.0637  -11.4206   24.9533 C   0  0  0  0  0  0  0  0  0  0  0  0
    4.9865  -10.5448   23.8827 C   0  0  0  0  0  0  0  0  0  0  0  0
    5.4243   -9.1198   24.0307 C   0  0  0  0  0  0  0  0  0  0  0  0
    4.5562  -10.9253   22.6641 N   0  0  0  0  0  0  0  0  0  0  0  0
    4.2322  -12.2201   22.5293 C   0  0  0  0  0  0  0  0  0  0  0  0
    4.2541  -13.1364   23.5014 N   0  0  0  0  0  0  0  0  0  0  0  0
  1  2  1  0
  2  3  1  0
  2  4  2  0
  4  5  2  0
  5  6  1  0
  6  7  2  0
  6  8  1  0
  8  9  1  0
  9 10  1  0
 10 11  2  0
 11 12  1  0
 12 13  1  0
 12 14  2  0
 14 15  1  0
 15 16  2  0
 16 10  1  0
M  END
>  <placement_batch>  (139) 
CpKRS_FrAncestor_bulkdock_iter2_cluster_best5

>  <name>  (139) 
RAIMFUMWMGSZSU-UHFFFAOYSA-N-P39

>  <HIPPO Pose ID>  (139) 
59385

>  <inchikey>  (139) 
RAIMFUMWMGSZSU-UHFFFAOYSA-N

>  <inspiration_score>  (139) 
0.638

>  <tags>  (139) 
CpKRS_FrAncestor_bulkdock_iter2,CpKRS_FrAncestor_bulkdock_iter2_cluster_best5,BulkDock Fragalysis export,fragmenstein_placed,CpKRS_FrAncestor_bulkdock_iter2_exported

>  <distance_score>  (139) 
0.98111

>  <ref_pdb>  (139) 
x0646a

>  <alias>  (139) 
RAIMFUMWMGSZSU-UHFFFAOYSA-N-P39

>  <subsites>  (139) 


>  <smiles>  (139) 
CC(C)=C=CC(=O)NCc1cc(C)ncn1

>  <HIPPO Compound ID>  (139) 
446489

>  <ref_mols>  (139) 
x0602a

>  <energy_score>  (139) 
-17.887261

$$$$
URRFLDZADCDMET-UHFFFAOYSA-N-P39
     RDKit          3D

 16 16  0  0  0  0  0  0  0  0999 V2000
   -0.1756  -14.3045   26.4973 C   0  0  0  0  0  0  0  0  0  0  0  0
    0.3569  -15.1408   25.3677 C   0  0  0  0  0  0  0  0  0  0  0  0
   -0.3500  -14.9752   24.0525 C   0  0  0  0  0  0  0  0  0  0  0  0
    1.4248  -15.8828   25.4925 C   0  0  0  0  0  0  0  0  0  0  0  0
    2.5125  -16.5905   25.5980 C   0  0  0  0  0  0  0  0  0  0  0  0
    3.8950  -16.0204   25.5604 C   0  0  0  0  0  0  0  0  0  0  0  0
    4.7992  -16.6997   25.2813 O   0  0  0  0  0  0  0  0  0  0  0  0
    3.8425  -14.5214   25.9058 N   0  0  0  0  0  0  0  0  0  0  0  0
    4.8744  -13.5238   25.8884 C   0  0  0  0  0  0  0  0  0  0  0  0
    4.7698  -12.6023   24.6968 C   0  0  0  0  0  0  0  0  0  0  0  0
    4.4973  -13.1009   23.4366 C   0  0  0  0  0  0  0  0  0  0  0  0
    4.4852  -12.1874   22.4123 C   0  0  0  0  0  0  0  0  0  0  0  0
    4.7259  -10.8741   22.5785 N   0  0  0  0  0  0  0  0  0  0  0  0
    5.0202  -10.4803   23.8278 C   0  0  0  0  0  0  0  0  0  0  0  0
    5.4062   -9.0491   24.0247 C   0  0  0  0  0  0  0  0  0  0  0  0
    5.0389  -11.2903   24.9043 N   0  0  0  0  0  0  0  0  0  0  0  0
  1  2  1  0
  2  3  1  0
  2  4  2  0
  4  5  2  0
  5  6  1  0
  6  7  2  0
  6  8  1  0
  8  9  1  0
  9 10  1  0
 10 11  2  0
 11 12  1  0
 12 13  2  0
 13 14  1  0
 14 15  1  0
 14 16  2  0
 16 10  1  0
M  END
>  <placement_batch>  (140) 
CpKRS_FrAncestor_bulkdock_iter2_cluster_best5

>  <name>  (140) 
URRFLDZADCDMET-UHFFFAOYSA-N-P39

>  <HIPPO Pose ID>  (140) 
59393

>  <inchikey>  (140) 
URRFLDZADCDMET-UHFFFAOYSA-N

>  <inspiration_score>  (140) 
0.832

>  <tags>  (140) 
CpKRS_FrAncestor_bulkdock_iter2,CpKRS_FrAncestor_bulkdock_iter2_cluster_best5,BulkDock Fragalysis export,fragmenstein_placed,CpKRS_FrAncestor_bulkdock_iter2_exported

>  <distance_score>  (140) 
0.618783

>  <ref_pdb>  (140) 
x0646a

>  <alias>  (140) 
URRFLDZADCDMET-UHFFFAOYSA-N-P39

>  <subsites>  (140) 


>  <smiles>  (140) 
CC(C)=C=CC(=O)NCc1ccnc(C)n1

>  <HIPPO Compound ID>  (140) 
446493

>  <ref_mols>  (140) 
x0602a

>  <energy_score>  (140) 
-19.728311

$$$$
BHUJDWWAOCGCEE-QMMMGPOBSA-N-P44
     RDKit          3D

 15 16  0  0  0  0  0  0  0  0999 V2000
  -14.0673  -13.8829   45.7438 C   0  0  0  0  0  0  0  0  0  0  0  0
  -12.8867  -14.8450   45.6074 C   0  0  2  0  0  0  0  0  0  0  0  0
  -11.7446  -14.2744   46.2976 N   0  0  0  0  0  0  0  0  0  0  0  0
  -10.9131  -13.0188   45.9850 C   0  0  0  0  0  0  0  0  0  0  0  0
  -11.0591  -12.1999   45.1685 O   0  0  0  0  0  0  0  0  0  0  0  0
   -9.8487  -12.9095   47.0012 C   0  0  0  0  0  0  0  0  0  0  0  0
   -8.8850  -11.9166   47.0098 C   0  0  0  0  0  0  0  0  0  0  0  0
   -7.8646  -12.0862   48.3751 S   0  0  0  0  0  0  0  0  0  0  0  0
   -8.7300  -13.4980   48.8218 C   0  0  0  0  0  0  0  0  0  0  0  0
   -9.7579  -13.8174   48.0649 N   0  0  0  0  0  0  0  0  0  0  0  0
  -12.5394  -15.1706   44.1322 C   0  0  0  0  0  0  0  0  0  0  0  0
  -13.7077  -15.7025   43.2960 C   0  0  0  0  0  0  0  0  0  0  0  0
  -13.7854  -17.1725   43.6680 C   0  0  0  0  0  0  0  0  0  0  0  0
  -12.3314  -17.6002   43.8037 C   0  0  0  0  0  0  0  0  0  0  0  0
  -11.5235  -16.3203   44.0263 C   0  0  0  0  0  0  0  0  0  0  0  0
  2  1  1  6
  2  3  1  0
  3  4  1  0
  4  5  2  0
  4  6  1  0
  6  7  2  0
  7  8  1  0
  8  9  1  0
  9 10  2  0
  2 11  1  0
 11 12  1  0
 12 13  1  0
 13 14  1  0
 14 15  1  0
 10  6  1  0
 15 11  1  0
M  END
>  <placement_batch>  (141) 
CpKRS_FrAncestor_bulkdock_iter2_cluster_best5

>  <name>  (141) 
BHUJDWWAOCGCEE-QMMMGPOBSA-N-P44

>  <HIPPO Pose ID>  (141) 
59681

>  <inchikey>  (141) 
BHUJDWWAOCGCEE-UHFFFAOYSA-N

>  <inspiration_score>  (141) 
0.668

>  <tags>  (141) 
CpKRS_FrAncestor_bulkdock_iter2,CpKRS_FrAncestor_bulkdock_iter2_cluster_best5,BulkDock Fragalysis export,fragmenstein_placed,CpKRS_FrAncestor_bulkdock_iter2_exported

>  <distance_score>  (141) 
0.687433

>  <ref_pdb>  (141) 
x0504a

>  <alias>  (141) 
BHUJDWWAOCGCEE-QMMMGPOBSA-N-P44

>  <subsites>  (141) 


>  <smiles>  (141) 
C[C@H](NC(=O)c1cscn1)C1CCCC1

>  <HIPPO Compound ID>  (141) 
451870

>  <ref_mols>  (141) 
x0502b

>  <energy_score>  (141) 
-71.024108

$$$$
RGSMLJLRDWJNNP-QHGLUPRGSA-N-P34
     RDKit          3D

 17 18  0  0  0  0  0  0  0  0999 V2000
    3.8121  -11.4894   21.9544 C   0  0  0  0  0  0  0  0  0  0  0  0
    4.7854  -11.3515   23.0876 C   0  0  2  0  0  0  0  0  0  0  0  0
    4.2444  -12.0585   24.1971 N   0  0  0  0  0  0  0  0  0  0  0  0
    4.5196  -13.4730   24.7009 C   0  0  0  0  0  0  0  0  0  0  0  0
    5.2846  -14.2601   24.3407 O   0  0  0  0  0  0  0  0  0  0  0  0
    3.5456  -13.8098   25.8367 C   0  0  1  0  0  0  0  0  0  0  0  0
    3.7305  -12.8468   26.7523 F   0  0  0  0  0  0  0  0  0  0  0  0
    2.0549  -13.6485   25.6122 C   0  0  0  0  0  0  0  0  0  0  0  0
    1.3581  -13.8571   26.9590 C   0  0  0  0  0  0  0  0  0  0  0  0
    1.8171  -15.1479   27.6548 C   0  0  0  0  0  0  0  0  0  0  0  0
    3.2527  -15.2363   27.8795 N   0  0  0  0  0  0  0  0  0  0  0  0
    3.9327  -15.1120   26.5645 C   0  0  0  0  0  0  0  0  0  0  0  0
    5.1156   -9.9469   23.3620 C   0  0  0  0  0  0  0  0  0  0  0  0
    6.0596   -9.3265   24.1433 C   0  0  0  0  0  0  0  0  0  0  0  0
    6.0224   -7.9539   23.8247 C   0  0  0  0  0  0  0  0  0  0  0  0
    5.1039   -7.8447   22.8140 C   0  0  0  0  0  0  0  0  0  0  0  0
    4.5060   -9.0246   22.5702 O   0  0  0  0  0  0  0  0  0  0  0  0
  2  1  1  6
  2  3  1  0
  3  4  1  0
  4  5  2  0
  4  6  1  0
  6  7  1  1
  6  8  1  0
  8  9  1  0
  9 10  1  0
 10 11  1  0
 11 12  1  0
  2 13  1  0
 13 14  2  0
 14 15  1  0
 15 16  2  0
 16 17  1  0
 12  6  1  0
 17 13  1  0
M  END
>  <placement_batch>  (142) 
CpKRS_FrAncestor_bulkdock_iter2_cluster_best5

>  <name>  (142) 
RGSMLJLRDWJNNP-QHGLUPRGSA-N-P34

>  <HIPPO Pose ID>  (142) 
59695

>  <inchikey>  (142) 
RGSMLJLRDWJNNP-UHFFFAOYSA-N

>  <inspiration_score>  (142) 
0.754

>  <tags>  (142) 
CpKRS_FrAncestor_bulkdock_iter2,CpKRS_FrAncestor_bulkdock_iter2_cluster_best5,BulkDock Fragalysis export,fragmenstein_placed,CpKRS_FrAncestor_bulkdock_iter2_exported

>  <distance_score>  (142) 
0.487677

>  <ref_pdb>  (142) 
x0504a

>  <alias>  (142) 
RGSMLJLRDWJNNP-QHGLUPRGSA-N-P34

>  <subsites>  (142) 


>  <smiles>  (142) 
C[C@H](NC(=O)C1(F)CCCNC1)c1ccco1

>  <HIPPO Compound ID>  (142) 
250056

>  <ref_mols>  (142) 
x0492a

>  <energy_score>  (142) 
-17.849409

$$$$
VSEXUFNXHWQJQQ-QMMMGPOBSA-N-P34
     RDKit          3D

 17 18  0  0  0  0  0  0  0  0999 V2000
    3.7758  -11.6767   22.0474 C   0  0  0  0  0  0  0  0  0  0  0  0
    4.7733  -11.5449   23.1653 C   0  0  2  0  0  0  0  0  0  0  0  0
    4.2598  -12.2491   24.2996 N   0  0  0  0  0  0  0  0  0  0  0  0
    4.8483  -13.4180   25.0948 C   0  0  0  0  0  0  0  0  0  0  0  0
    5.8783  -13.9466   25.0050 O   0  0  0  0  0  0  0  0  0  0  0  0
    3.8212  -13.9539   26.0497 C   0  0  0  0  0  0  0  0  0  0  0  0
    2.6173  -13.2893   26.0898 N   0  0  0  0  0  0  0  0  0  0  0  0
    1.7553  -13.7083   27.0386 C   0  0  0  0  0  0  0  0  0  0  0  0
    2.0100  -14.7467   27.9263 C   0  0  0  0  0  0  0  0  0  0  0  0
    3.2127  -15.4329   27.8167 C   0  0  0  0  0  0  0  0  0  0  0  0
    4.1362  -15.0324   26.8655 C   0  0  0  0  0  0  0  0  0  0  0  0
    5.3134  -15.6699   26.8161 F   0  0  0  0  0  0  0  0  0  0  0  0
    5.0923  -10.1191   23.4198 C   0  0  0  0  0  0  0  0  0  0  0  0
    6.0745   -9.4727   24.1336 C   0  0  0  0  0  0  0  0  0  0  0  0
    5.9845   -8.0981   23.8292 C   0  0  0  0  0  0  0  0  0  0  0  0
    4.9884   -7.9992   22.8948 C   0  0  0  0  0  0  0  0  0  0  0  0
    4.4096   -9.1976   22.6766 O   0  0  0  0  0  0  0  0  0  0  0  0
  2  1  1  6
  2  3  1  0
  3  4  1  0
  4  5  2  0
  4  6  1  0
  6  7  2  0
  7  8  1  0
  8  9  2  0
  9 10  1  0
 10 11  2  0
 11 12  1  0
  2 13  1  0
 13 14  2  0
 14 15  1  0
 15 16  2  0
 16 17  1  0
 11  6  1  0
 17 13  1  0
M  END
>  <placement_batch>  (143) 
CpKRS_FrAncestor_bulkdock_iter2_cluster_best5

>  <name>  (143) 
VSEXUFNXHWQJQQ-QMMMGPOBSA-N-P34

>  <HIPPO Pose ID>  (143) 
59703

>  <inchikey>  (143) 
VSEXUFNXHWQJQQ-UHFFFAOYSA-N

>  <inspiration_score>  (143) 
0.848

>  <tags>  (143) 
CpKRS_FrAncestor_bulkdock_iter2,CpKRS_FrAncestor_bulkdock_iter2_cluster_best5,BulkDock Fragalysis export,fragmenstein_placed,CpKRS_FrAncestor_bulkdock_iter2_exported

>  <distance_score>  (143) 
0.441113

>  <ref_pdb>  (143) 
x0504a

>  <alias>  (143) 
VSEXUFNXHWQJQQ-QMMMGPOBSA-N-P34

>  <subsites>  (143) 


>  <smiles>  (143) 
C[C@H](NC(=O)c1ncccc1F)c1ccco1

>  <HIPPO Compound ID>  (143) 
234533

>  <ref_mols>  (143) 
x0492a

>  <energy_score>  (143) 
-18.210357

$$$$
QLRFWPVSPATFAK-VIFPVBQESA-N-P44
     RDKit          3D

 16 17  0  0  0  0  0  0  0  0999 V2000
  -11.6120  -11.4005   45.4920 C   0  0  0  0  0  0  0  0  0  0  0  0
  -11.3395  -12.5762   46.4243 C   0  0  1  0  0  0  0  0  0  0  0  0
  -11.6329  -13.8133   45.7256 N   0  0  0  0  0  0  0  0  0  0  0  0
  -12.8436  -14.2114   44.8628 C   0  0  0  0  0  0  0  0  0  0  0  0
  -13.7613  -13.5831   44.5125 O   0  0  0  0  0  0  0  0  0  0  0  0
  -12.6989  -15.6187   44.4828 C   0  0  0  0  0  0  0  0  0  0  0  0
  -11.7025  -16.3926   44.8988 N   0  0  0  0  0  0  0  0  0  0  0  0
  -11.9995  -17.6468   44.4370 C   0  0  0  0  0  0  0  0  0  0  0  0
  -13.1307  -17.6334   43.6596 C   0  0  0  0  0  0  0  0  0  0  0  0
  -13.5609  -16.3374   43.6848 N   0  0  0  0  0  0  0  0  0  0  0  0
  -14.7410  -15.8347   43.0239 C   0  0  0  0  0  0  0  0  0  0  0  0
   -9.8937  -12.5726   46.9534 C   0  0  0  0  0  0  0  0  0  0  0  0
   -9.3726  -11.2148   47.4245 C   0  0  0  0  0  0  0  0  0  0  0  0
   -8.1367  -11.5757   48.2301 C   0  0  0  0  0  0  0  0  0  0  0  0
   -8.5170  -12.8570   48.9596 C   0  0  0  0  0  0  0  0  0  0  0  0
   -9.6931  -13.4611   48.1883 C   0  0  0  0  0  0  0  0  0  0  0  0
  2  1  1  6
  2  3  1  0
  3  4  1  0
  4  5  2  0
  4  6  1  0
  6  7  2  0
  7  8  1  0
  8  9  2  0
  9 10  1  0
 10 11  1  0
  2 12  1  0
 12 13  1  0
 13 14  1  0
 14 15  1  0
 15 16  1  0
 10  6  1  0
 16 12  1  0
M  END
>  <placement_batch>  (144) 
CpKRS_FrAncestor_bulkdock_iter2_cluster_best5

>  <name>  (144) 
QLRFWPVSPATFAK-VIFPVBQESA-N-P44

>  <HIPPO Pose ID>  (144) 
59710

>  <inchikey>  (144) 
QLRFWPVSPATFAK-UHFFFAOYSA-N

>  <inspiration_score>  (144) 
0.386

>  <tags>  (144) 
CpKRS_FrAncestor_bulkdock_iter2,CpKRS_FrAncestor_bulkdock_iter2_cluster_best5,BulkDock Fragalysis export,fragmenstein_placed,CpKRS_FrAncestor_bulkdock_iter2_exported

>  <distance_score>  (144) 
0.848547

>  <ref_pdb>  (144) 
x0504a

>  <alias>  (144) 
QLRFWPVSPATFAK-VIFPVBQESA-N-P44

>  <subsites>  (144) 


>  <smiles>  (144) 
C[C@H](NC(=O)c1nccn1C)C1CCCC1

>  <HIPPO Compound ID>  (144) 
451873

>  <ref_mols>  (144) 
x0502b

>  <energy_score>  (144) 
-56.45344

$$$$
ADTOVIWLISZUOQ-PKEIRNPWSA-N-P9
     RDKit          3D

 20 21  0  0  0  0  0  0  0  0999 V2000
    6.0621   -7.8101   24.3694 C   0  0  0  0  0  0  0  0  0  0  0  0
    4.9430   -8.1703   23.4117 C   0  0  1  0  0  0  0  0  0  0  0  0
    5.0933   -7.4119   22.2160 O   0  0  0  0  0  0  0  0  0  0  0  0
    4.8375   -9.6555   23.1643 C   0  0  0  0  0  0  0  0  0  0  0  0
    5.4289  -10.2717   22.0548 C   0  0  0  0  0  0  0  0  0  0  0  0
    5.3769  -11.6548   21.9162 C   0  0  0  0  0  0  0  0  0  0  0  0
    4.8232  -12.4431   22.9071 C   0  0  0  0  0  0  0  0  0  0  0  0
    4.2434  -11.8435   24.0132 C   0  0  0  0  0  0  0  0  0  0  0  0
    3.7164  -12.6551   24.9936 N   0  0  0  0  0  0  0  0  0  0  0  0
    4.0729  -14.1149   25.3953 C   0  0  0  0  0  0  0  0  0  0  0  0
    4.9190  -14.8217   25.0069 O   0  0  0  0  0  0  0  0  0  0  0  0
    3.0464  -14.6866   26.3946 C   0  0  2  0  0  0  0  0  0  0  0  0
    1.8895  -13.8126   26.8195 C   0  0  0  0  0  0  0  0  0  0  0  0
    0.9617  -14.6460   27.6519 C   0  0  0  0  0  0  0  0  0  0  0  0
    0.3248  -15.5219   26.8348 F   0  0  0  0  0  0  0  0  0  0  0  0
   -0.0199  -13.8348   28.1340 F   0  0  0  0  0  0  0  0  0  0  0  0
    1.6407  -15.3879   28.7827 C   0  0  0  0  0  0  0  0  0  0  0  0
    2.8641  -16.1179   28.2582 C   0  0  0  0  0  0  0  0  0  0  0  0
    3.6958  -15.1963   27.5609 O   0  0  0  0  0  0  0  0  0  0  0  0
    4.1892  -10.4585   24.1192 C   0  0  0  0  0  0  0  0  0  0  0  0
  2  1  1  1
  2  3  1  0
  2  4  1  0
  4  5  2  0
  5  6  1  0
  6  7  2  0
  7  8  1  0
  8  9  1  0
  9 10  1  0
 10 11  2  0
 12 10  1  1
 12 13  1  0
 13 14  1  0
 14 15  1  0
 14 16  1  0
 14 17  1  0
 17 18  1  0
 18 19  1  0
  8 20  2  0
 20  4  1  0
 19 12  1  0
M  END
>  <placement_batch>  (145) 
CpKRS_FrAncestor_bulkdock_iter2_cluster_best5

>  <name>  (145) 
ADTOVIWLISZUOQ-PKEIRNPWSA-N-P9

>  <HIPPO Pose ID>  (145) 
59876

>  <inchikey>  (145) 
ADTOVIWLISZUOQ-UHFFFAOYSA-N

>  <inspiration_score>  (145) 
0.808

>  <tags>  (145) 
CpKRS_FrAncestor_bulkdock_iter2,CpKRS_FrAncestor_bulkdock_iter2_cluster_best5,BulkDock Fragalysis export,fragmenstein_placed,CpKRS_FrAncestor_bulkdock_iter2_exported

>  <distance_score>  (145) 
0.471257

>  <ref_pdb>  (145) 
x0504a

>  <alias>  (145) 
ADTOVIWLISZUOQ-PKEIRNPWSA-N-P9

>  <subsites>  (145) 


>  <smiles>  (145) 
C[C@@H](O)c1cccc(NC(=O)C2CC(F)(F)CCO2)c1

>  <HIPPO Compound ID>  (145) 
451894

>  <ref_mols>  (145) 
x0419a

>  <energy_score>  (145) 
-29.359814

$$$$
MTCYBQLOTJJBNT-JTQLQIEISA-N-P9
     RDKit          3D

 18 19  0  0  0  0  0  0  0  0999 V2000
    5.2669   -7.7019   24.6709 C   0  0  0  0  0  0  0  0  0  0  0  0
    5.4768   -8.3468   23.3076 C   0  0  2  0  0  0  0  0  0  0  0  0
    4.8469   -7.5622   22.3013 O   0  0  0  0  0  0  0  0  0  0  0  0
    5.0118   -9.7743   23.1530 C   0  0  0  0  0  0  0  0  0  0  0  0
    5.3246  -10.4395   21.9581 C   0  0  0  0  0  0  0  0  0  0  0  0
    5.1307  -11.8108   21.8407 C   0  0  0  0  0  0  0  0  0  0  0  0
    4.6620  -12.5433   22.9188 C   0  0  0  0  0  0  0  0  0  0  0  0
    4.2916  -11.8898   24.0873 C   0  0  0  0  0  0  0  0  0  0  0  0
    3.9132  -12.6443   25.1855 N   0  0  0  0  0  0  0  0  0  0  0  0
    4.2821  -14.0860   25.5838 C   0  0  0  0  0  0  0  0  0  0  0  0
    5.0216  -14.8384   25.0925 O   0  0  0  0  0  0  0  0  0  0  0  0
    3.4442  -14.5341   26.7291 C   0  0  0  0  0  0  0  0  0  0  0  0
    3.9638  -15.5026   27.5046 C   0  0  0  0  0  0  0  0  0  0  0  0
    3.1619  -16.2400   28.5208 C   0  0  0  0  0  0  0  0  0  0  0  0
    1.8655  -15.6682   28.7340 O   0  0  0  0  0  0  0  0  0  0  0  0
    1.2438  -15.3156   27.4963 C   0  0  0  0  0  0  0  0  0  0  0  0
    2.0015  -14.1705   26.8319 C   0  0  0  0  0  0  0  0  0  0  0  0
    4.3961  -10.5031   24.1819 C   0  0  0  0  0  0  0  0  0  0  0  0
  2  1  1  1
  2  3  1  0
  2  4  1  0
  4  5  2  0
  5  6  1  0
  6  7  2  0
  7  8  1  0
  8  9  1  0
  9 10  1  0
 10 11  2  0
 10 12  1  0
 12 13  2  0
 13 14  1  0
 14 15  1  0
 15 16  1  0
 16 17  1  0
  8 18  2  0
 18  4  1  0
 17 12  1  0
M  END
>  <placement_batch>  (146) 
CpKRS_FrAncestor_bulkdock_iter2_cluster_best5

>  <name>  (146) 
MTCYBQLOTJJBNT-JTQLQIEISA-N-P9

>  <HIPPO Pose ID>  (146) 
59879

>  <inchikey>  (146) 
MTCYBQLOTJJBNT-UHFFFAOYSA-N

>  <inspiration_score>  (146) 
0.911

>  <tags>  (146) 
CpKRS_FrAncestor_bulkdock_iter2,CpKRS_FrAncestor_bulkdock_iter2_cluster_best5,BulkDock Fragalysis export,fragmenstein_placed,CpKRS_FrAncestor_bulkdock_iter2_exported

>  <distance_score>  (146) 
0.3936

>  <ref_pdb>  (146) 
x0504a

>  <alias>  (146) 
MTCYBQLOTJJBNT-JTQLQIEISA-N-P9

>  <subsites>  (146) 


>  <smiles>  (146) 
C[C@H](O)c1cccc(NC(=O)C2=CCOCC2)c1

>  <HIPPO Compound ID>  (146) 
352435

>  <ref_mols>  (146) 
x0419a

>  <energy_score>  (146) 
-25.352433

$$$$
GGSFOIGCDFLGBO-VUWPPUDQSA-N-P6
     RDKit          3D

 14 14  0  0  0  0  0  0  0  0999 V2000
    5.8406   -7.7692   23.7973 C   0  0  0  0  0  0  0  0  0  0  0  0
    5.0913   -9.0687   24.0525 C   0  0  2  0  0  0  0  0  0  0  0  0
    3.7213   -8.8762   23.6795 O   0  0  0  0  0  0  0  0  0  0  0  0
    5.2238   -9.4990   25.5357 C   0  0  0  0  0  0  0  0  0  0  0  0
    4.6381  -10.7855   25.9285 N   0  0  0  0  0  0  0  0  0  0  0  0
    5.0345  -11.9059   25.0974 C   0  0  0  0  0  0  0  0  0  0  0  0
    4.6042  -13.2443   25.6800 C   0  0  0  0  0  0  0  0  0  0  0  0
    3.1822  -13.2352   26.2227 C   0  0  0  0  0  0  0  0  0  0  0  0
    2.3565  -11.9860   25.8118 C   0  0  2  0  0  0  0  0  0  0  0  0
    1.0322  -12.0753   26.5977 C   0  0  0  0  0  0  0  0  0  0  0  0
    2.1002  -11.8683   24.3284 N   0  0  0  0  0  0  0  0  0  0  0  0
    1.7922  -13.1392   23.6639 C   0  0  0  0  0  0  0  0  0  0  0  0
    1.0382  -10.9068   23.9855 C   0  0  0  0  0  0  0  0  0  0  0  0
    3.2105  -10.7483   26.2975 C   0  0  0  0  0  0  0  0  0  0  0  0
  2  1  1  1
  2  3  1  0
  2  4  1  0
  4  5  1  0
  5  6  1  0
  6  7  1  0
  7  8  1  0
  8  9  1  0
  9 10  1  1
  9 11  1  0
 11 12  1  0
 11 13  1  0
  9 14  1  0
 14  5  1  0
M  END
>  <placement_batch>  (147) 
CpKRS_FrAncestor_bulkdock_iter2_cluster_best5

>  <name>  (147) 
GGSFOIGCDFLGBO-VUWPPUDQSA-N-P6

>  <HIPPO Pose ID>  (147) 
59891

>  <inchikey>  (147) 
GGSFOIGCDFLGBO-UHFFFAOYSA-N

>  <inspiration_score>  (147) 
0.753

>  <tags>  (147) 
CpKRS_FrAncestor_bulkdock_iter2,CpKRS_FrAncestor_bulkdock_iter2_cluster_best5,BulkDock Fragalysis export,fragmenstein_placed,CpKRS_FrAncestor_bulkdock_iter2_exported

>  <distance_score>  (147) 
0.838712

>  <ref_pdb>  (147) 
x0504a

>  <alias>  (147) 
GGSFOIGCDFLGBO-VUWPPUDQSA-N-P6

>  <subsites>  (147) 


>  <smiles>  (147) 
C[C@H](O)CN1CCCC(C)(N(C)C)C1

>  <HIPPO Compound ID>  (147) 
387826

>  <ref_mols>  (147) 
x0414a

>  <energy_score>  (147) 
-45.187792

$$$$
OGBRSOQSWQECAZ-UHFFFAOYSA-N-P16
     RDKit          3D

 18 19  0  0  0  0  0  0  0  0999 V2000
    6.5705   -7.8387   24.6545 C   0  0  0  0  0  0  0  0  0  0  0  0
    5.2038   -7.8248   24.0193 C   0  0  0  0  0  0  0  0  0  0  0  0
    5.0186   -8.9099   23.0839 N   0  0  0  0  0  0  0  0  0  0  0  0
    5.2410   -8.8480   21.7452 C   0  0  0  0  0  0  0  0  0  0  0  0
    5.0154  -10.1155   21.2834 C   0  0  0  0  0  0  0  0  0  0  0  0
    4.6392  -10.8821   22.4107 C   0  0  0  0  0  0  0  0  0  0  0  0
    4.3889  -12.3596   22.3868 C   0  0  0  0  0  0  0  0  0  0  0  0
    3.8040  -12.8447   23.5949 N   0  0  0  0  0  0  0  0  0  0  0  0
    4.4569  -13.3391   24.8865 C   0  0  0  0  0  0  0  0  0  0  0  0
    5.5733  -13.3600   25.2056 O   0  0  0  0  0  0  0  0  0  0  0  0
    3.4310  -13.8192   25.8619 C   0  0  0  0  0  0  0  0  0  0  0  0
    2.2590  -13.0892   26.0942 C   0  0  0  0  0  0  0  0  0  0  0  0
    1.3643  -13.5091   27.0776 C   0  0  0  0  0  0  0  0  0  0  0  0
    1.6775  -14.6325   27.8194 C   0  0  0  0  0  0  0  0  0  0  0  0
    2.7710  -15.3811   27.6011 N   0  0  0  0  0  0  0  0  0  0  0  0
    3.6342  -14.9585   26.6338 C   0  0  0  0  0  0  0  0  0  0  0  0
    5.0966  -16.1122   26.3355 Br  0  0  0  0  0  0  0  0  0  0  0  0
    4.5346  -10.0964   23.4988 N   0  0  0  0  0  0  0  0  0  0  0  0
  1  2  1  0
  2  3  1  0
  3  4  1  0
  4  5  2  0
  5  6  1  0
  6  7  1  0
  7  8  1  0
  8  9  1  0
  9 10  2  0
  9 11  1  0
 11 12  2  0
 12 13  1  0
 13 14  2  0
 14 15  1  0
 15 16  2  0
 16 17  1  0
  6 18  2  0
 18  3  1  0
 16 11  1  0
M  END
>  <placement_batch>  (148) 
CpKRS_FrAncestor_bulkdock_iter2_cluster_best5

>  <name>  (148) 
OGBRSOQSWQECAZ-UHFFFAOYSA-N-P16

>  <HIPPO Pose ID>  (148) 
60083

>  <inchikey>  (148) 
OGBRSOQSWQECAZ-UHFFFAOYSA-N

>  <inspiration_score>  (148) 
0.79

>  <tags>  (148) 
CpKRS_FrAncestor_bulkdock_iter2,CpKRS_FrAncestor_bulkdock_iter2_cluster_best5,BulkDock Fragalysis export,fragmenstein_placed,CpKRS_FrAncestor_bulkdock_iter2_exported

>  <distance_score>  (148) 
0.526552

>  <ref_pdb>  (148) 
x0504a

>  <alias>  (148) 
OGBRSOQSWQECAZ-UHFFFAOYSA-N-P16

>  <subsites>  (148) 


>  <smiles>  (148) 
CCn1ccc(CNC(=O)c2cccnc2Br)n1

>  <HIPPO Compound ID>  (148) 
214721

>  <ref_mols>  (148) 
x0426a

>  <energy_score>  (148) 
-17.566857

$$$$
HCBNQVDEQJJKPS-UHFFFAOYSA-N-P4
     RDKit          3D

 17 18  0  0  0  0  0  0  0  0999 V2000
   -0.9289  -15.2084   25.9969 C   0  0  0  0  0  0  0  0  0  0  0  0
    0.1629  -15.8307   26.8582 C   0  0  0  0  0  0  0  0  0  0  0  0
    1.4467  -15.1722   26.7565 N   0  0  0  0  0  0  0  0  0  0  0  0
    2.6465  -15.7596   27.0248 C   0  0  0  0  0  0  0  0  0  0  0  0
    3.5878  -14.9043   26.5137 C   0  0  0  0  0  0  0  0  0  0  0  0
    2.8492  -13.8078   26.0250 C   0  0  0  0  0  0  0  0  0  0  0  0
    3.3541  -12.7815   25.3075 N   0  0  0  0  0  0  0  0  0  0  0  0
    4.7963  -12.4912   24.8566 C   0  0  0  0  0  0  0  0  0  0  0  0
    5.7661  -13.1301   24.9665 O   0  0  0  0  0  0  0  0  0  0  0  0
    4.8667  -11.1738   24.0549 C   0  0  2  0  0  0  0  0  0  0  0  0
    4.1652   -9.8747   24.4548 C   0  0  0  0  0  0  0  0  0  0  0  0
    4.0038   -9.0761   23.1555 C   0  0  0  0  0  0  0  0  0  0  0  0
    4.5909   -9.9499   22.0586 C   0  0  0  0  0  0  0  0  0  0  0  0
    4.4358  -11.3755   22.6046 C   0  0  0  0  0  0  0  0  0  0  0  0
    3.0007  -11.8960   22.5051 C   0  0  0  0  0  0  0  0  0  0  0  0
    5.3475  -12.3341   21.8727 C   0  0  0  0  0  0  0  0  0  0  0  0
    1.5464  -13.9087   26.2920 N   0  0  0  0  0  0  0  0  0  0  0  0
  1  2  1  0
  2  3  1  0
  3  4  1  0
  4  5  2  0
  5  6  1  0
  6  7  1  0
  7  8  1  0
  8  9  2  0
 10  8  1  1
 10 11  1  0
 11 12  1  0
 12 13  1  0
 13 14  1  0
 14 15  1  0
 14 16  1  0
  6 17  2  0
 17  3  1  0
 14 10  1  0
M  END
>  <placement_batch>  (149) 
CpKRS_FrAncestor_bulkdock_iter2_cluster_best5

>  <name>  (149) 
HCBNQVDEQJJKPS-UHFFFAOYSA-N-P4

>  <HIPPO Pose ID>  (149) 
60123

>  <inchikey>  (149) 
HCBNQVDEQJJKPS-UHFFFAOYSA-N

>  <inspiration_score>  (149) 
0.669

>  <tags>  (149) 
CpKRS_FrAncestor_bulkdock_iter2,CpKRS_FrAncestor_bulkdock_iter2_cluster_best5,BulkDock Fragalysis export,fragmenstein_placed,CpKRS_FrAncestor_bulkdock_iter2_exported

>  <distance_score>  (149) 
0.70406

>  <ref_pdb>  (149) 
x0504a

>  <alias>  (149) 
HCBNQVDEQJJKPS-UHFFFAOYSA-N-P4

>  <subsites>  (149) 


>  <smiles>  (149) 
CCn1ccc(NC(=O)C2CCCC2(C)C)n1

>  <HIPPO Compound ID>  (149) 
238043

>  <ref_mols>  (149) 
x0407a

>  <energy_score>  (149) 
-20.124036

$$$$
SCRMSJNORKBOBX-UHFFFAOYSA-N-P16
     RDKit          3D

 21 22  0  0  0  0  0  0  0  0999 V2000
    6.6258   -7.6939   24.6160 C   0  0  0  0  0  0  0  0  0  0  0  0
    5.2996   -7.8067   23.9079 C   0  0  0  0  0  0  0  0  0  0  0  0
    5.1854   -8.9998   23.0995 N   0  0  0  0  0  0  0  0  0  0  0  0
    5.0476  -10.2819   23.5445 C   0  0  0  0  0  0  0  0  0  0  0  0
    4.8712  -11.0759   22.4306 C   0  0  0  0  0  0  0  0  0  0  0  0
    4.6926  -12.5463   22.2985 C   0  0  0  0  0  0  0  0  0  0  0  0
    4.0886  -13.1202   23.4640 N   0  0  0  0  0  0  0  0  0  0  0  0
    4.7197  -13.6288   24.7651 C   0  0  0  0  0  0  0  0  0  0  0  0
    5.8233  -13.5936   25.1322 O   0  0  0  0  0  0  0  0  0  0  0  0
    3.6997  -14.1653   25.7397 C   0  0  0  0  0  0  0  0  0  0  0  0
    4.1761  -15.0445   26.7293 C   0  0  0  0  0  0  0  0  0  0  0  0
    3.3515  -15.4757   27.7712 C   0  0  0  0  0  0  0  0  0  0  0  0
    2.0370  -15.0281   27.8464 C   0  0  0  0  0  0  0  0  0  0  0  0
    1.5293  -14.1957   26.8508 C   0  0  0  0  0  0  0  0  0  0  0  0
    2.3570  -13.7572   25.8077 C   0  0  0  0  0  0  0  0  0  0  0  0
    1.7752  -12.9680   24.8470 O   0  0  0  0  0  0  0  0  0  0  0  0
    1.9075  -11.5988   25.1981 C   0  0  0  0  0  0  0  0  0  0  0  0
    0.9911  -11.2977   26.1540 F   0  0  0  0  0  0  0  0  0  0  0  0
    1.5729  -10.8573   24.1116 F   0  0  0  0  0  0  0  0  0  0  0  0
    4.9514  -10.1498   21.3659 C   0  0  0  0  0  0  0  0  0  0  0  0
    5.0924   -8.8862   21.7668 N   0  0  0  0  0  0  0  0  0  0  0  0
  1  2  1  0
  2  3  1  0
  3  4  1  0
  4  5  2  0
  5  6  1  0
  6  7  1  0
  7  8  1  0
  8  9  2  0
  8 10  1  0
 10 11  2  0
 11 12  1  0
 12 13  2  0
 13 14  1  0
 14 15  2  0
 15 16  1  0
 16 17  1  0
 17 18  1  0
 17 19  1  0
  5 20  1  0
 20 21  2  0
 21  3  1  0
 15 10  1  0
M  END
>  <placement_batch>  (150) 
CpKRS_FrAncestor_bulkdock_iter2_cluster_best5

>  <name>  (150) 
SCRMSJNORKBOBX-UHFFFAOYSA-N-P16

>  <HIPPO Pose ID>  (150) 
60126

>  <inchikey>  (150) 
SCRMSJNORKBOBX-UHFFFAOYSA-N

>  <inspiration_score>  (150) 
0.825

>  <tags>  (150) 
CpKRS_FrAncestor_bulkdock_iter2,CpKRS_FrAncestor_bulkdock_iter2_cluster_best5,BulkDock Fragalysis export,fragmenstein_placed,CpKRS_FrAncestor_bulkdock_iter2_exported

>  <distance_score>  (150) 
0.445928

>  <ref_pdb>  (150) 
x0504a

>  <alias>  (150) 
SCRMSJNORKBOBX-UHFFFAOYSA-N-P16

>  <subsites>  (150) 


>  <smiles>  (150) 
CCn1cc(CNC(=O)c2ccccc2OC(F)F)cn1

>  <HIPPO Compound ID>  (150) 
160357

>  <ref_mols>  (150) 
x0426a

>  <energy_score>  (150) 
-29.111191

$$$$
CTBIJTKHBYERAD-UHFFFAOYSA-N-P6
     RDKit          3D

 12 12  0  0  0  0  0  0  0  0999 V2000
    0.7848  -14.1488   26.7967 C   0  0  0  0  0  0  0  0  0  0  0  0
    1.5562  -13.5868   25.6124 C   0  0  0  0  0  0  0  0  0  0  0  0
    2.8377  -12.9338   25.9569 N   0  0  0  0  0  0  0  0  0  0  0  0
    2.6144  -11.7143   26.7661 C   0  0  0  0  0  0  0  0  0  0  0  0
    3.8577  -10.8045   26.8763 C   0  0  0  0  0  0  0  0  0  0  0  0
    4.3281  -10.4016   25.5372 N   0  0  0  0  0  0  0  0  0  0  0  0
    5.3743   -9.3623   25.5398 C   0  0  2  0  0  0  0  0  0  0  0  0
    4.9646   -8.1250   26.3608 C   0  0  0  0  0  0  0  0  0  0  0  0
    5.6694   -8.8526   24.1725 C   0  0  0  0  0  0  0  0  0  0  0  0
    5.9095   -8.3985   23.1305 N   0  0  0  0  0  0  0  0  0  0  0  0
    4.7242  -11.6324   24.8290 C   0  0  0  0  0  0  0  0  0  0  0  0
    3.5230  -12.5908   24.6897 C   0  0  0  0  0  0  0  0  0  0  0  0
  1  2  1  0
  2  3  1  0
  3  4  1  0
  4  5  1  0
  5  6  1  0
  6  7  1  0
  7  8  1  1
  7  9  1  0
  9 10  3  0
  6 11  1  0
 11 12  1  0
 12  3  1  0
M  END
>  <placement_batch>  (151) 
CpKRS_FrAncestor_bulkdock_iter2_cluster_best5

>  <name>  (151) 
CTBIJTKHBYERAD-UHFFFAOYSA-N-P6

>  <HIPPO Pose ID>  (151) 
60274

>  <inchikey>  (151) 
CTBIJTKHBYERAD-UHFFFAOYSA-N

>  <inspiration_score>  (151) 
0.413

>  <tags>  (151) 
CpKRS_FrAncestor_bulkdock_iter2,CpKRS_FrAncestor_bulkdock_iter2_cluster_best5,BulkDock Fragalysis export,fragmenstein_placed,CpKRS_FrAncestor_bulkdock_iter2_exported

>  <distance_score>  (151) 
0.84049

>  <ref_pdb>  (151) 
x0504a

>  <alias>  (151) 
CTBIJTKHBYERAD-UHFFFAOYSA-N-P6

>  <subsites>  (151) 


>  <smiles>  (151) 
CCN1CCN(C(C)C#N)CC1

>  <HIPPO Compound ID>  (151) 
269147

>  <ref_mols>  (151) 
x0414a

>  <energy_score>  (151) 
-45.860419

$$$$
UNOBLKTXTMGBAZ-UHFFFAOYSA-N-P4
     RDKit          3D

 15 16  0  0  0  0  0  0  0  0999 V2000
    3.2466  -16.3555   28.8344 C   0  0  0  0  0  0  0  0  0  0  0  0
    2.6265  -16.4506   27.4537 C   0  0  0  0  0  0  0  0  0  0  0  0
    2.3587  -15.1456   26.8914 N   0  0  0  0  0  0  0  0  0  0  0  0
    1.1867  -14.4530   27.0112 C   0  0  0  0  0  0  0  0  0  0  0  0
    1.1917  -13.3525   26.2906 N   0  0  0  0  0  0  0  0  0  0  0  0
    2.4250  -13.3502   25.6964 C   0  0  0  0  0  0  0  0  0  0  0  0
    2.7693  -12.3960   24.8041 N   0  0  0  0  0  0  0  0  0  0  0  0
    4.1016  -12.1640   24.0397 C   0  0  0  0  0  0  0  0  0  0  0  0
    5.1276  -12.7156   24.1227 O   0  0  0  0  0  0  0  0  0  0  0  0
    3.8373  -11.0314   23.0397 C   0  0  0  0  0  0  0  0  0  0  0  0
    4.9912  -10.8517   22.0419 C   0  0  0  0  0  0  0  0  0  0  0  0
    5.1548   -9.3515   21.8805 C   0  0  0  0  0  0  0  0  0  0  0  0
    4.8811   -8.8444   23.2821 C   0  0  0  0  0  0  0  0  0  0  0  0
    3.6772   -9.6658   23.7238 C   0  0  0  0  0  0  0  0  0  0  0  0
    3.1841  -14.4241   26.0852 C   0  0  0  0  0  0  0  0  0  0  0  0
  1  2  1  0
  2  3  1  0
  3  4  1  0
  4  5  2  0
  5  6  1  0
  6  7  1  0
  7  8  1  0
  8  9  2  0
  8 10  1  0
 10 11  1  0
 11 12  1  0
 12 13  1  0
 13 14  1  0
  6 15  2  0
 15  3  1  0
 14 10  1  0
M  END
>  <placement_batch>  (152) 
CpKRS_FrAncestor_bulkdock_iter2_cluster_best5

>  <name>  (152) 
UNOBLKTXTMGBAZ-UHFFFAOYSA-N-P4

>  <HIPPO Pose ID>  (152) 
60378

>  <inchikey>  (152) 
UNOBLKTXTMGBAZ-UHFFFAOYSA-N

>  <inspiration_score>  (152) 
0.794

>  <tags>  (152) 
CpKRS_FrAncestor_bulkdock_iter2,CpKRS_FrAncestor_bulkdock_iter2_cluster_best5,BulkDock Fragalysis export,fragmenstein_placed,CpKRS_FrAncestor_bulkdock_iter2_exported

>  <distance_score>  (152) 
0.573341

>  <ref_pdb>  (152) 
x0504a

>  <alias>  (152) 
UNOBLKTXTMGBAZ-UHFFFAOYSA-N-P4

>  <subsites>  (152) 


>  <smiles>  (152) 
CCn1cnc(NC(=O)C2CCCC2)c1

>  <HIPPO Compound ID>  (152) 
451931

>  <ref_mols>  (152) 
x0407a

>  <energy_score>  (152) 
-31.205931

$$$$
KEVKYPJSBSZRLE-UHFFFAOYSA-N-P4
     RDKit          3D

 17 18  0  0  0  0  0  0  0  0999 V2000
    3.3022  -16.5495   28.9666 C   0  0  0  0  0  0  0  0  0  0  0  0
    2.6324  -16.7104   27.6153 C   0  0  0  0  0  0  0  0  0  0  0  0
    2.3497  -15.4287   27.0215 N   0  0  0  0  0  0  0  0  0  0  0  0
    1.1571  -14.7673   27.0907 C   0  0  0  0  0  0  0  0  0  0  0  0
    1.2252  -13.5859   26.5215 N   0  0  0  0  0  0  0  0  0  0  0  0
    2.5125  -13.5223   26.0625 C   0  0  0  0  0  0  0  0  0  0  0  0
    2.9612  -12.4185   25.4438 N   0  0  0  0  0  0  0  0  0  0  0  0
    4.3641  -12.0934   24.8448 C   0  0  0  0  0  0  0  0  0  0  0  0
    5.3593  -12.7075   24.8690 O   0  0  0  0  0  0  0  0  0  0  0  0
    4.2066  -10.7583   24.1213 C   0  0  1  0  0  0  0  0  0  0  0  0
    5.3707   -9.7783   24.1612 C   0  0  0  0  0  0  0  0  0  0  0  0
    5.2765   -8.9896   22.8526 C   0  0  0  0  0  0  0  0  0  0  0  0
    4.1485   -9.6363   22.0484 C   0  0  0  0  0  0  0  0  0  0  0  0
    4.0104  -11.0491   22.6338 C   0  0  0  0  0  0  0  0  0  0  0  0
    2.6498  -11.7064   22.4601 C   0  0  0  0  0  0  0  0  0  0  0  0
    5.0833  -11.9648   22.0219 C   0  0  0  0  0  0  0  0  0  0  0  0
    3.2291  -14.6515   26.3417 C   0  0  0  0  0  0  0  0  0  0  0  0
  1  2  1  0
  2  3  1  0
  3  4  1  0
  4  5  2  0
  5  6  1  0
  6  7  1  0
  7  8  1  0
  8  9  2  0
 10  8  1  1
 10 11  1  0
 11 12  1  0
 12 13  1  0
 13 14  1  0
 14 15  1  0
 14 16  1  0
  6 17  2  0
 17  3  1  0
 14 10  1  0
M  END
>  <placement_batch>  (153) 
CpKRS_FrAncestor_bulkdock_iter2_cluster_best5

>  <name>  (153) 
KEVKYPJSBSZRLE-UHFFFAOYSA-N-P4

>  <HIPPO Pose ID>  (153) 
60381

>  <inchikey>  (153) 
KEVKYPJSBSZRLE-UHFFFAOYSA-N

>  <inspiration_score>  (153) 
0.716

>  <tags>  (153) 
CpKRS_FrAncestor_bulkdock_iter2,CpKRS_FrAncestor_bulkdock_iter2_cluster_best5,BulkDock Fragalysis export,fragmenstein_placed,CpKRS_FrAncestor_bulkdock_iter2_exported

>  <distance_score>  (153) 
0.783782

>  <ref_pdb>  (153) 
x0504a

>  <alias>  (153) 
KEVKYPJSBSZRLE-UHFFFAOYSA-N-P4

>  <subsites>  (153) 


>  <smiles>  (153) 
CCn1cnc(NC(=O)C2CCCC2(C)C)c1

>  <HIPPO Compound ID>  (153) 
451932

>  <ref_mols>  (153) 
x0407a

>  <energy_score>  (153) 
-35.785498

$$$$
VTLLOVXVDPZZLS-UHFFFAOYSA-N-P58
     RDKit          3D

 19 20  0  0  0  0  0  0  0  0999 V2000
    5.5703  -13.8482   25.3204 O   0  0  0  0  0  0  0  0  0  0  0  0
    4.4356  -14.0427   25.1354 C   0  0  0  0  0  0  0  0  0  0  0  0
    3.4888  -13.4879   24.0475 N   0  0  0  0  0  0  0  0  0  0  0  0
    3.7615  -12.6581   22.9118 C   0  0  0  0  0  0  0  0  0  0  0  0
    4.2067  -11.2469   23.2123 C   0  0  0  0  0  0  0  0  0  0  0  0
    3.8637  -10.5619   24.3842 C   0  0  0  0  0  0  0  0  0  0  0  0
    4.3367   -9.2639   24.6098 C   0  0  0  0  0  0  0  0  0  0  0  0
    5.1392   -8.6443   23.6593 C   0  0  0  0  0  0  0  0  0  0  0  0
    5.6102   -7.4120   23.8913 F   0  0  0  0  0  0  0  0  0  0  0  0
    5.4477   -9.2823   22.4691 C   0  0  0  0  0  0  0  0  0  0  0  0
    4.9804  -10.5770   22.2481 C   0  0  0  0  0  0  0  0  0  0  0  0
    3.5878  -15.0631   25.9464 C   0  0  1  0  0  0  0  0  0  0  0  0
    4.3189  -15.4851   27.2127 C   0  0  0  0  0  0  0  0  0  0  0  0
    3.3391  -16.0648   28.1853 C   0  0  0  0  0  0  0  0  0  0  0  0
    2.8327  -17.2033   27.6564 F   0  0  0  0  0  0  0  0  0  0  0  0
    3.9597  -16.4442   29.3317 F   0  0  0  0  0  0  0  0  0  0  0  0
    2.2001  -15.1341   28.5283 C   0  0  0  0  0  0  0  0  0  0  0  0
    1.9595  -14.1288   27.4185 C   0  0  0  0  0  0  0  0  0  0  0  0
    2.2164  -14.6883   26.1427 O   0  0  0  0  0  0  0  0  0  0  0  0
  1  2  2  0
  2  3  1  0
  3  4  1  0
  4  5  1  0
  5  6  2  0
  6  7  1  0
  7  8  2  0
  8  9  1  0
  8 10  1  0
 10 11  2  0
 12  2  1  1
 12 13  1  0
 13 14  1  0
 14 15  1  0
 14 16  1  0
 14 17  1  0
 17 18  1  0
 18 19  1  0
 11  5  1  0
 19 12  1  0
M  END
>  <placement_batch>  (154) 
CpKRS_FrAncestor_bulkdock_iter2_cluster_best5

>  <name>  (154) 
VTLLOVXVDPZZLS-UHFFFAOYSA-N-P58

>  <HIPPO Pose ID>  (154) 
60594

>  <inchikey>  (154) 
VTLLOVXVDPZZLS-UHFFFAOYSA-N

>  <inspiration_score>  (154) 
0.685

>  <tags>  (154) 
CpKRS_FrAncestor_bulkdock_iter2,CpKRS_FrAncestor_bulkdock_iter2_cluster_best5,BulkDock Fragalysis export,fragmenstein_placed,CpKRS_FrAncestor_bulkdock_iter2_exported

>  <distance_score>  (154) 
0.441903

>  <ref_pdb>  (154) 
x0654b

>  <alias>  (154) 
VTLLOVXVDPZZLS-UHFFFAOYSA-N-P58

>  <subsites>  (154) 


>  <smiles>  (154) 
O=C(NCc1ccc(F)cc1)C1CC(F)(F)CCO1

>  <HIPPO Compound ID>  (154) 
405337

>  <ref_mols>  (154) 
x0654c

>  <energy_score>  (154) 
-6.903073

$$$$
UBYSQEXMRGYUOP-UHFFFAOYSA-N-P56
     RDKit          3D

 17 18  0  0  0  0  0  0  0  0999 V2000
    5.4254  -14.0508   25.2900 O   0  0  0  0  0  0  0  0  0  0  0  0
    4.2644  -14.0135   25.2049 C   0  0  0  0  0  0  0  0  0  0  0  0
    3.3618  -13.3210   24.1686 N   0  0  0  0  0  0  0  0  0  0  0  0
    3.6962  -12.6104   22.9695 C   0  0  0  0  0  0  0  0  0  0  0  0
    4.1757  -11.1972   23.2125 C   0  0  0  0  0  0  0  0  0  0  0  0
    5.0182  -10.5947   22.2651 C   0  0  0  0  0  0  0  0  0  0  0  0
    5.5095   -9.3030   22.4613 C   0  0  0  0  0  0  0  0  0  0  0  0
    5.1612   -8.6033   23.6078 C   0  0  0  0  0  0  0  0  0  0  0  0
    5.6564   -7.3751   23.8100 F   0  0  0  0  0  0  0  0  0  0  0  0
    4.2908   -9.1557   24.5374 C   0  0  0  0  0  0  0  0  0  0  0  0
    3.7906  -10.4458   24.3340 C   0  0  0  0  0  0  0  0  0  0  0  0
    3.3915  -14.6601   26.2418 C   0  0  0  0  0  0  0  0  0  0  0  0
    2.3407  -14.0353   26.8054 C   0  0  0  0  0  0  0  0  0  0  0  0
    1.5554  -14.6302   27.9374 C   0  0  0  0  0  0  0  0  0  0  0  0
    1.9044  -15.9841   28.2257 O   0  0  0  0  0  0  0  0  0  0  0  0
    3.3150  -16.1944   28.1874 C   0  0  0  0  0  0  0  0  0  0  0  0
    3.8483  -15.9872   26.7727 C   0  0  0  0  0  0  0  0  0  0  0  0
  1  2  2  0
  2  3  1  0
  3  4  1  0
  4  5  1  0
  5  6  2  0
  6  7  1  0
  7  8  2  0
  8  9  1  0
  8 10  1  0
 10 11  2  0
  2 12  1  0
 12 13  2  0
 13 14  1  0
 14 15  1  0
 15 16  1  0
 16 17  1  0
 11  5  1  0
 17 12  1  0
M  END
>  <placement_batch>  (155) 
CpKRS_FrAncestor_bulkdock_iter2_cluster_best5

>  <name>  (155) 
UBYSQEXMRGYUOP-UHFFFAOYSA-N-P56

>  <HIPPO Pose ID>  (155) 
60595

>  <inchikey>  (155) 
UBYSQEXMRGYUOP-UHFFFAOYSA-N

>  <inspiration_score>  (155) 
0.799

>  <tags>  (155) 
CpKRS_FrAncestor_bulkdock_iter2,CpKRS_FrAncestor_bulkdock_iter2_cluster_best5,BulkDock Fragalysis export,fragmenstein_placed,CpKRS_FrAncestor_bulkdock_iter2_exported

>  <distance_score>  (155) 
0.427852

>  <ref_pdb>  (155) 
x0654b

>  <alias>  (155) 
UBYSQEXMRGYUOP-UHFFFAOYSA-N-P56

>  <subsites>  (155) 


>  <smiles>  (155) 
O=C(NCc1ccc(F)cc1)C1=CCOCC1

>  <HIPPO Compound ID>  (155) 
453012

>  <ref_mols>  (155) 
x0654a

>  <energy_score>  (155) 
-8.297435

$$$$
CJHITKLALJDJFL-UHFFFAOYSA-N-P45
     RDKit          3D

 16 17  0  0  0  0  0  0  0  0999 V2000
    5.4055  -13.7684   25.2728 O   0  0  0  0  0  0  0  0  0  0  0  0
    4.3000  -13.4818   25.0414 C   0  0  0  0  0  0  0  0  0  0  0  0
    3.7111  -12.5900   23.9307 N   0  0  0  0  0  0  0  0  0  0  0  0
    4.3481  -11.9423   22.8188 C   0  0  0  0  0  0  0  0  0  0  0  0
    4.2366  -10.4326   22.9767 C   0  0  2  0  0  0  0  0  0  0  0  0
    4.9432   -9.6203   21.8943 C   0  0  0  0  0  0  0  0  0  0  0  0
    5.1852   -8.2467   22.5283 C   0  0  0  0  0  0  0  0  0  0  0  0
    4.9420   -8.4333   24.0165 C   0  0  0  0  0  0  0  0  0  0  0  0
    5.8729   -7.8179   24.7646 F   0  0  0  0  0  0  0  0  0  0  0  0
    3.7392   -7.9052   24.3632 F   0  0  0  0  0  0  0  0  0  0  0  0
    4.9069   -9.9201   24.2492 C   0  0  0  0  0  0  0  0  0  0  0  0
    3.2436  -13.9128   25.9468 C   0  0  0  0  0  0  0  0  0  0  0  0
    3.2670  -14.9002   26.9149 C   0  0  0  0  0  0  0  0  0  0  0  0
    2.1201  -15.0035   27.6928 N   0  0  0  0  0  0  0  0  0  0  0  0
    1.2103  -14.1118   27.3360 N   0  0  0  0  0  0  0  0  0  0  0  0
    1.7129  -13.1555   26.0662 S   0  0  0  0  0  0  0  0  0  0  0  0
  1  2  2  0
  2  3  1  0
  3  4  1  0
  5  4  1  6
  5  6  1  0
  6  7  1  0
  7  8  1  0
  8  9  1  0
  8 10  1  0
  8 11  1  0
  2 12  1  0
 12 13  2  0
 13 14  1  0
 14 15  2  0
 15 16  1  0
 11  5  1  0
 16 12  1  0
M  END
>  <placement_batch>  (156) 
CpKRS_FrAncestor_bulkdock_iter2_cluster_best5

>  <name>  (156) 
CJHITKLALJDJFL-UHFFFAOYSA-N-P45

>  <HIPPO Pose ID>  (156) 
60628

>  <inchikey>  (156) 
CJHITKLALJDJFL-UHFFFAOYSA-N

>  <inspiration_score>  (156) 
0.856

>  <tags>  (156) 
CpKRS_FrAncestor_bulkdock_iter2,CpKRS_FrAncestor_bulkdock_iter2_cluster_best5,BulkDock Fragalysis export,fragmenstein_placed,CpKRS_FrAncestor_bulkdock_iter2_exported

>  <distance_score>  (156) 
0.330395

>  <ref_pdb>  (156) 
x0654b

>  <alias>  (156) 
CJHITKLALJDJFL-UHFFFAOYSA-N-P45

>  <subsites>  (156) 


>  <smiles>  (156) 
O=C(NCC1CCC(F)(F)C1)c1cnns1

>  <HIPPO Compound ID>  (156) 
218604

>  <ref_mols>  (156) 
x0502a

>  <energy_score>  (156) 
-61.577452

$$$$
UYQHLGOYCKWXJL-UHFFFAOYSA-N-P15
     RDKit          3D

 16 17  0  0  0  0  0  0  0  0999 V2000
    1.8706  -26.4746   12.6377 O   0  0  0  0  0  0  0  0  0  0  0  0
    1.7432  -25.4874   13.2436 C   0  0  0  0  0  0  0  0  0  0  0  0
    1.6324  -25.2556   14.7604 N   0  0  0  0  0  0  0  0  0  0  0  0
    1.7493  -26.1761   15.8553 C   0  0  0  0  0  0  0  0  0  0  0  0
    2.5520  -25.6269   16.9931 C   0  0  0  0  0  0  0  0  0  0  0  0
    2.4869  -26.0204   18.3194 C   0  0  0  0  0  0  0  0  0  0  0  0
    3.4300  -25.3399   19.1362 C   0  0  0  0  0  0  0  0  0  0  0  0
    3.6123  -25.6424   20.8001 Cl  0  0  0  0  0  0  0  0  0  0  0  0
    4.1644  -24.4218   18.4282 C   0  0  0  0  0  0  0  0  0  0  0  0
    3.7769  -24.4532   16.7721 S   0  0  0  0  0  0  0  0  0  0  0  0
    1.5563  -24.2324   12.4648 C   0  0  0  0  0  0  0  0  0  0  0  0
    0.6294  -23.2487   12.8103 C   0  0  0  0  0  0  0  0  0  0  0  0
    0.4694  -22.1421   11.9791 C   0  0  0  0  0  0  0  0  0  0  0  0
    1.2408  -22.0544   10.8326 C   0  0  0  0  0  0  0  0  0  0  0  0
    2.1483  -22.9885   10.4615 N   0  0  0  0  0  0  0  0  0  0  0  0
    2.2650  -24.0682   11.2790 C   0  0  0  0  0  0  0  0  0  0  0  0
  1  2  2  0
  2  3  1  0
  3  4  1  0
  4  5  1  0
  5  6  2  0
  6  7  1  0
  7  8  1  0
  7  9  2  0
  9 10  1  0
  2 11  1  0
 11 12  2  0
 12 13  1  0
 13 14  2  0
 14 15  1  0
 15 16  2  0
 10  5  1  0
 16 11  1  0
M  END
>  <placement_batch>  (157) 
CpKRS_FrAncestor_bulkdock_iter2_cluster_best5

>  <name>  (157) 
UYQHLGOYCKWXJL-UHFFFAOYSA-N-P15

>  <HIPPO Pose ID>  (157) 
60645

>  <inchikey>  (157) 
UYQHLGOYCKWXJL-UHFFFAOYSA-N

>  <inspiration_score>  (157) 
0.816

>  <tags>  (157) 
CpKRS_FrAncestor_bulkdock_iter2,CpKRS_FrAncestor_bulkdock_iter2_cluster_best5,BulkDock Fragalysis export,fragmenstein_placed,CpKRS_FrAncestor_bulkdock_iter2_exported

>  <distance_score>  (157) 
0.432313

>  <ref_pdb>  (157) 
x0654b

>  <alias>  (157) 
UYQHLGOYCKWXJL-UHFFFAOYSA-N-P15

>  <subsites>  (157) 


>  <smiles>  (157) 
O=C(NCc1cc(Cl)cs1)c1cccnc1

>  <HIPPO Compound ID>  (157) 
453018

>  <ref_mols>  (157) 
x0426b

>  <energy_score>  (157) 
-14.299287

$$$$
KTPUZJRVKGBLOF-UHFFFAOYSA-N-P34
     RDKit          3D

 16 17  0  0  0  0  0  0  0  0999 V2000
    5.1418  -13.9087   24.2526 O   0  0  0  0  0  0  0  0  0  0  0  0
    4.2082  -13.2174   24.3246 C   0  0  0  0  0  0  0  0  0  0  0  0
    3.8057  -11.9913   23.4804 N   0  0  0  0  0  0  0  0  0  0  0  0
    4.4150  -11.4236   22.3233 C   0  0  0  0  0  0  0  0  0  0  0  0
    4.9652  -10.1069   22.6812 C   0  0  0  0  0  0  0  0  0  0  0  0
    5.7375   -9.6521   23.7271 C   0  0  0  0  0  0  0  0  0  0  0  0
    5.9500   -8.2773   23.5100 C   0  0  0  0  0  0  0  0  0  0  0  0
    5.3233   -7.9940   22.3217 C   0  0  0  0  0  0  0  0  0  0  0  0
    4.7025   -9.0876   21.8216 O   0  0  0  0  0  0  0  0  0  0  0  0
    3.1554  -13.3625   25.4587 C   0  0  1  0  0  0  0  0  0  0  0  0
    3.1928  -12.1879   26.1517 F   0  0  0  0  0  0  0  0  0  0  0  0
    1.6717  -13.4055   25.1425 C   0  0  0  0  0  0  0  0  0  0  0  0
    0.8830  -13.3729   26.4598 C   0  0  0  0  0  0  0  0  0  0  0  0
    1.5863  -14.0593   27.6381 C   0  0  0  0  0  0  0  0  0  0  0  0
    2.4929  -15.1174   27.2384 N   0  0  0  0  0  0  0  0  0  0  0  0
    3.5664  -14.5449   26.3870 C   0  0  0  0  0  0  0  0  0  0  0  0
  1  2  2  0
  2  3  1  0
  3  4  1  0
  4  5  1  0
  5  6  2  0
  6  7  1  0
  7  8  2  0
  8  9  1  0
  2 10  1  0
 10 11  1  1
 10 12  1  0
 12 13  1  0
 13 14  1  0
 14 15  1  0
 15 16  1  0
  9  5  1  0
 16 10  1  0
M  END
>  <placement_batch>  (158) 
CpKRS_FrAncestor_bulkdock_iter2_cluster_best5

>  <name>  (158) 
KTPUZJRVKGBLOF-UHFFFAOYSA-N-P34

>  <HIPPO Pose ID>  (158) 
60664

>  <inchikey>  (158) 
KTPUZJRVKGBLOF-UHFFFAOYSA-N

>  <inspiration_score>  (158) 
0.696

>  <tags>  (158) 
CpKRS_FrAncestor_bulkdock_iter2,CpKRS_FrAncestor_bulkdock_iter2_cluster_best5,BulkDock Fragalysis export,fragmenstein_placed,CpKRS_FrAncestor_bulkdock_iter2_exported

>  <distance_score>  (158) 
0.676975

>  <ref_pdb>  (158) 
x0654b

>  <alias>  (158) 
KTPUZJRVKGBLOF-UHFFFAOYSA-N-P34

>  <subsites>  (158) 


>  <smiles>  (158) 
O=C(NCc1ccco1)C1(F)CCCNC1

>  <HIPPO Compound ID>  (158) 
453028

>  <ref_mols>  (158) 
x0492a

>  <energy_score>  (158) 
-13.868908

$$$$
LHVXLCHZMKPROO-UHFFFAOYSA-N-P34
     RDKit          3D

 16 17  0  0  0  0  0  0  0  0999 V2000
    5.8223  -13.7556   24.8957 O   0  0  0  0  0  0  0  0  0  0  0  0
    4.7059  -13.4440   24.8050 C   0  0  0  0  0  0  0  0  0  0  0  0
    3.9986  -12.5706   23.7596 N   0  0  0  0  0  0  0  0  0  0  0  0
    4.4952  -11.9748   22.5547 C   0  0  0  0  0  0  0  0  0  0  0  0
    4.9194  -10.5624   22.7806 C   0  0  0  0  0  0  0  0  0  0  0  0
    5.6793  -10.0321   23.7996 C   0  0  0  0  0  0  0  0  0  0  0  0
    5.9158   -8.6384   23.6733 C   0  0  0  0  0  0  0  0  0  0  0  0
    5.3636   -8.1536   22.5153 C   0  0  0  0  0  0  0  0  0  0  0  0
    4.5764   -9.3641   21.6225 S   0  0  0  0  0  0  0  0  0  0  0  0
    3.7209  -13.9328   25.8256 C   0  0  0  0  0  0  0  0  0  0  0  0
    2.5130  -13.2781   25.8682 N   0  0  0  0  0  0  0  0  0  0  0  0
    1.6944  -13.6418   26.8773 C   0  0  0  0  0  0  0  0  0  0  0  0
    1.9905  -14.6236   27.8162 C   0  0  0  0  0  0  0  0  0  0  0  0
    3.1965  -15.3043   27.7072 C   0  0  0  0  0  0  0  0  0  0  0  0
    4.0820  -14.9511   26.7013 C   0  0  0  0  0  0  0  0  0  0  0  0
    5.2595  -15.5884   26.6382 F   0  0  0  0  0  0  0  0  0  0  0  0
  1  2  2  0
  2  3  1  0
  3  4  1  0
  4  5  1  0
  5  6  2  0
  6  7  1  0
  7  8  2  0
  8  9  1  0
  2 10  1  0
 10 11  2  0
 11 12  1  0
 12 13  2  0
 13 14  1  0
 14 15  2  0
 15 16  1  0
  9  5  1  0
 15 10  1  0
M  END
>  <placement_batch>  (159) 
CpKRS_FrAncestor_bulkdock_iter2_cluster_best5

>  <name>  (159) 
LHVXLCHZMKPROO-UHFFFAOYSA-N-P34

>  <HIPPO Pose ID>  (159) 
60687

>  <inchikey>  (159) 
LHVXLCHZMKPROO-UHFFFAOYSA-N

>  <inspiration_score>  (159) 
0.874

>  <tags>  (159) 
CpKRS_FrAncestor_bulkdock_iter2,CpKRS_FrAncestor_bulkdock_iter2_cluster_best5,BulkDock Fragalysis export,fragmenstein_placed,CpKRS_FrAncestor_bulkdock_iter2_exported

>  <distance_score>  (159) 
0.338586

>  <ref_pdb>  (159) 
x0654b

>  <alias>  (159) 
LHVXLCHZMKPROO-UHFFFAOYSA-N-P34

>  <subsites>  (159) 


>  <smiles>  (159) 
O=C(NCc1cccs1)c1ncccc1F

>  <HIPPO Compound ID>  (159) 
453031

>  <ref_mols>  (159) 
x0492a

>  <energy_score>  (159) 
-21.304821

$$$$
XSRLEECYFQZCCX-UHFFFAOYSA-N-P55
     RDKit          3D

 16 17  0  0  0  0  0  0  0  0999 V2000
    4.1198  -13.2458   22.5150 O   0  0  0  0  0  0  0  0  0  0  0  0
    4.3963  -12.6144   23.4492 C   0  0  0  0  0  0  0  0  0  0  0  0
    4.6221  -13.0386   24.9017 N   0  0  0  0  0  0  0  0  0  0  0  0
    4.6488  -14.3339   25.4947 C   0  0  0  0  0  0  0  0  0  0  0  0
    3.5074  -14.5475   26.4165 C   0  0  0  0  0  0  0  0  0  0  0  0
    3.5407  -15.4025   27.5560 C   0  0  0  0  0  0  0  0  0  0  0  0
    2.3112  -15.3419   28.1657 C   0  0  0  0  0  0  0  0  0  0  0  0
    1.5095  -14.5223   27.4170 N   0  0  0  0  0  0  0  0  0  0  0  0
    2.2236  -14.0344   26.3555 C   0  0  0  0  0  0  0  0  0  0  0  0
    4.6824  -11.1841   23.3516 C   0  0  0  0  0  0  0  0  0  0  0  0
    4.8602  -10.4182   24.4136 N   0  0  0  0  0  0  0  0  0  0  0  0
    5.1758   -9.1411   24.0081 C   0  0  0  0  0  0  0  0  0  0  0  0
    5.4477   -7.9085   25.1557 Cl  0  0  0  0  0  0  0  0  0  0  0  0
    5.1978   -8.9828   22.6496 C   0  0  0  0  0  0  0  0  0  0  0  0
    5.4389   -7.5567   21.7793 Cl  0  0  0  0  0  0  0  0  0  0  0  0
    4.8957  -10.4254   21.8342 S   0  0  0  0  0  0  0  0  0  0  0  0
  1  2  2  0
  2  3  1  0
  3  4  1  0
  4  5  1  0
  5  6  1  0
  6  7  2  0
  7  8  1  0
  8  9  1  0
  2 10  1  0
 10 11  2  0
 11 12  1  0
 12 13  1  0
 12 14  2  0
 14 15  1  0
 14 16  1  0
  9  5  2  0
 16 10  1  0
M  END
>  <placement_batch>  (160) 
CpKRS_FrAncestor_bulkdock_iter2_cluster_best5

>  <name>  (160) 
XSRLEECYFQZCCX-UHFFFAOYSA-N-P55

>  <HIPPO Pose ID>  (160) 
60703

>  <inchikey>  (160) 
XSRLEECYFQZCCX-UHFFFAOYSA-N

>  <inspiration_score>  (160) 
0.678

>  <tags>  (160) 
CpKRS_FrAncestor_bulkdock_iter2,CpKRS_FrAncestor_bulkdock_iter2_cluster_best5,BulkDock Fragalysis export,fragmenstein_placed,CpKRS_FrAncestor_bulkdock_iter2_exported

>  <distance_score>  (160) 
0.83737

>  <ref_pdb>  (160) 
x0654b

>  <alias>  (160) 
XSRLEECYFQZCCX-UHFFFAOYSA-N-P55

>  <subsites>  (160) 


>  <smiles>  (160) 
O=C(NCc1cc[nH]c1)c1nc(Cl)c(Cl)s1

>  <HIPPO Compound ID>  (160) 
453040

>  <ref_mols>  (160) 
x0646a

>  <energy_score>  (160) 
-57.289674

$$$$
IHSZVRWDRNRTMB-UHFFFAOYSA-N-P16
     RDKit          3D

 17 18  0  0  0  0  0  0  0  0999 V2000
    5.8733  -13.9137   25.0559 O   0  0  0  0  0  0  0  0  0  0  0  0
    4.7465  -13.7061   24.8482 C   0  0  0  0  0  0  0  0  0  0  0  0
    4.0637  -13.0237   23.6537 N   0  0  0  0  0  0  0  0  0  0  0  0
    4.6119  -12.5366   22.4187 C   0  0  0  0  0  0  0  0  0  0  0  0
    4.8907  -11.0894   22.5158 C   0  0  0  0  0  0  0  0  0  0  0  0
    5.3466  -10.2541   23.5060 C   0  0  0  0  0  0  0  0  0  0  0  0
    5.4336   -8.9967   22.8911 C   0  0  0  0  0  0  0  0  0  0  0  0
    5.0257   -9.0336   21.6215 N   0  0  0  0  0  0  0  0  0  0  0  0
    4.7160  -10.3632   21.3766 O   0  0  0  0  0  0  0  0  0  0  0  0
    3.7694  -14.1820   25.8864 C   0  0  0  0  0  0  0  0  0  0  0  0
    4.2103  -15.1445   26.8135 C   0  0  0  0  0  0  0  0  0  0  0  0
    3.3806  -15.5785   27.8512 C   0  0  0  0  0  0  0  0  0  0  0  0
    2.0952  -15.0586   27.9747 C   0  0  0  0  0  0  0  0  0  0  0  0
    1.6361  -14.1336   27.0389 C   0  0  0  0  0  0  0  0  0  0  0  0
    0.0137  -13.5600   27.1421 Cl  0  0  0  0  0  0  0  0  0  0  0  0
    2.4703  -13.6885   26.0103 C   0  0  0  0  0  0  0  0  0  0  0  0
    1.9987  -12.7709   25.1484 F   0  0  0  0  0  0  0  0  0  0  0  0
  1  2  2  0
  2  3  1  0
  3  4  1  0
  4  5  1  0
  5  6  2  0
  6  7  1  0
  7  8  2  0
  8  9  1  0
  2 10  1  0
 10 11  2  0
 11 12  1  0
 12 13  2  0
 13 14  1  0
 14 15  1  0
 14 16  2  0
 16 17  1  0
  9  5  1  0
 16 10  1  0
M  END
>  <placement_batch>  (161) 
CpKRS_FrAncestor_bulkdock_iter2_cluster_best5

>  <name>  (161) 
IHSZVRWDRNRTMB-UHFFFAOYSA-N-P16

>  <HIPPO Pose ID>  (161) 
60716

>  <inchikey>  (161) 
IHSZVRWDRNRTMB-UHFFFAOYSA-N

>  <inspiration_score>  (161) 
0.8

>  <tags>  (161) 
CpKRS_FrAncestor_bulkdock_iter2,CpKRS_FrAncestor_bulkdock_iter2_cluster_best5,BulkDock Fragalysis export,fragmenstein_placed,CpKRS_FrAncestor_bulkdock_iter2_exported

>  <distance_score>  (161) 
0.357162

>  <ref_pdb>  (161) 
x0654b

>  <alias>  (161) 
IHSZVRWDRNRTMB-UHFFFAOYSA-N-P16

>  <subsites>  (161) 


>  <smiles>  (161) 
O=C(NCc1ccno1)c1cccc(Cl)c1F

>  <HIPPO Compound ID>  (161) 
236419

>  <ref_mols>  (161) 
x0426a

>  <energy_score>  (161) 
-13.310825

$$$$
RRIXVHKHZHFNRF-UHFFFAOYSA-N-P16
     RDKit          3D

 16 17  0  0  0  0  0  0  0  0999 V2000
    5.8729  -13.5660   25.1604 O   0  0  0  0  0  0  0  0  0  0  0  0
    4.7565  -13.6154   24.8364 C   0  0  0  0  0  0  0  0  0  0  0  0
    4.0720  -13.1356   23.5491 N   0  0  0  0  0  0  0  0  0  0  0  0
    4.6289  -12.5792   22.3474 C   0  0  0  0  0  0  0  0  0  0  0  0
    4.8844  -11.1321   22.5062 C   0  0  0  0  0  0  0  0  0  0  0  0
    5.3485  -10.3335   23.5222 C   0  0  0  0  0  0  0  0  0  0  0  0
    5.4115   -9.0502   22.9600 C   0  0  0  0  0  0  0  0  0  0  0  0
    4.9782   -9.0376   21.6982 N   0  0  0  0  0  0  0  0  0  0  0  0
    4.6808  -10.3597   21.4024 O   0  0  0  0  0  0  0  0  0  0  0  0
    3.7739  -14.1624   25.8296 C   0  0  0  0  0  0  0  0  0  0  0  0
    4.2145  -15.1482   26.7257 C   0  0  0  0  0  0  0  0  0  0  0  0
    3.3795  -15.6007   27.7491 C   0  0  0  0  0  0  0  0  0  0  0  0
    2.0985  -15.0701   27.8840 C   0  0  0  0  0  0  0  0  0  0  0  0
    1.6477  -14.1139   26.9761 C   0  0  0  0  0  0  0  0  0  0  0  0
    0.0405  -13.5081   27.0974 Cl  0  0  0  0  0  0  0  0  0  0  0  0
    2.4799  -13.6434   25.9604 C   0  0  0  0  0  0  0  0  0  0  0  0
  1  2  2  0
  2  3  1  0
  3  4  1  0
  4  5  1  0
  5  6  2  0
  6  7  1  0
  7  8  2  0
  8  9  1  0
  2 10  1  0
 10 11  2  0
 11 12  1  0
 12 13  2  0
 13 14  1  0
 14 15  1  0
 14 16  2  0
  9  5  1  0
 16 10  1  0
M  END
>  <placement_batch>  (162) 
CpKRS_FrAncestor_bulkdock_iter2_cluster_best5

>  <name>  (162) 
RRIXVHKHZHFNRF-UHFFFAOYSA-N-P16

>  <HIPPO Pose ID>  (162) 
60718

>  <inchikey>  (162) 
RRIXVHKHZHFNRF-UHFFFAOYSA-N

>  <inspiration_score>  (162) 
0.772

>  <tags>  (162) 
CpKRS_FrAncestor_bulkdock_iter2,CpKRS_FrAncestor_bulkdock_iter2_cluster_best5,BulkDock Fragalysis export,fragmenstein_placed,CpKRS_FrAncestor_bulkdock_iter2_exported

>  <distance_score>  (162) 
0.412057

>  <ref_pdb>  (162) 
x0654b

>  <alias>  (162) 
RRIXVHKHZHFNRF-UHFFFAOYSA-N-P16

>  <subsites>  (162) 


>  <smiles>  (162) 
O=C(NCc1ccno1)c1cccc(Cl)c1

>  <HIPPO Compound ID>  (162) 
453048

>  <ref_mols>  (162) 
x0426a

>  <energy_score>  (162) 
-11.736287

$$$$
NKVFHOBGLYXZMV-UHFFFAOYSA-N-P16
     RDKit          3D

 16 17  0  0  0  0  0  0  0  0999 V2000
    5.8850  -13.7020   25.1518 O   0  0  0  0  0  0  0  0  0  0  0  0
    4.7627  -13.6862   24.8436 C   0  0  0  0  0  0  0  0  0  0  0  0
    4.0836  -13.1287   23.5821 N   0  0  0  0  0  0  0  0  0  0  0  0
    4.6499  -12.5591   22.3930 C   0  0  0  0  0  0  0  0  0  0  0  0
    4.8566  -11.0799   22.5417 C   0  0  0  0  0  0  0  0  0  0  0  0
    5.0198  -10.1834   21.4351 C   0  0  0  0  0  0  0  0  0  0  0  0
    5.2510   -8.8814   21.8134 C   0  0  0  0  0  0  0  0  0  0  0  0
    5.2498   -8.7078   23.5069 S   0  0  0  0  0  0  0  0  0  0  0  0
    4.9737  -10.3770   23.7249 C   0  0  0  0  0  0  0  0  0  0  0  0
    3.7785  -14.1919   25.8451 C   0  0  0  0  0  0  0  0  0  0  0  0
    4.2012  -15.1422   26.7726 C   0  0  0  0  0  0  0  0  0  0  0  0
    3.4286  -15.6153   27.7869 N   0  0  0  0  0  0  0  0  0  0  0  0
    2.1887  -15.0885   27.8925 C   0  0  0  0  0  0  0  0  0  0  0  0
    1.6750  -14.1504   27.0094 C   0  0  0  0  0  0  0  0  0  0  0  0
    0.0633  -13.5781   27.1637 Cl  0  0  0  0  0  0  0  0  0  0  0  0
    2.4832  -13.6833   25.9779 C   0  0  0  0  0  0  0  0  0  0  0  0
  1  2  2  0
  2  3  1  0
  3  4  1  0
  4  5  1  0
  5  6  1  0
  6  7  2  0
  7  8  1  0
  8  9  1  0
  2 10  1  0
 10 11  2  0
 11 12  1  0
 12 13  2  0
 13 14  1  0
 14 15  1  0
 14 16  2  0
  9  5  2  0
 16 10  1  0
M  END
>  <placement_batch>  (163) 
CpKRS_FrAncestor_bulkdock_iter2_cluster_best5

>  <name>  (163) 
NKVFHOBGLYXZMV-UHFFFAOYSA-N-P16

>  <HIPPO Pose ID>  (163) 
60789

>  <inchikey>  (163) 
NKVFHOBGLYXZMV-UHFFFAOYSA-N

>  <inspiration_score>  (163) 
0.801

>  <tags>  (163) 
CpKRS_FrAncestor_bulkdock_iter2,CpKRS_FrAncestor_bulkdock_iter2_cluster_best5,BulkDock Fragalysis export,fragmenstein_placed,CpKRS_FrAncestor_bulkdock_iter2_exported

>  <distance_score>  (163) 
0.465516

>  <ref_pdb>  (163) 
x0654b

>  <alias>  (163) 
NKVFHOBGLYXZMV-UHFFFAOYSA-N-P16

>  <subsites>  (163) 


>  <smiles>  (163) 
O=C(NCc1ccsc1)c1cncc(Cl)c1

>  <HIPPO Compound ID>  (163) 
453070

>  <ref_mols>  (163) 
x0426a

>  <energy_score>  (163) 
-29.263049

$$$$
NOBSAZCWEWGOMP-UHFFFAOYSA-N-P64
     RDKit          3D

 15 16  0  0  0  0  0  0  0  0999 V2000
    5.4942  -14.2998   24.3245 O   0  0  0  0  0  0  0  0  0  0  0  0
    4.5273  -13.6527   24.3259 C   0  0  0  0  0  0  0  0  0  0  0  0
    4.1209  -12.4706   23.4374 N   0  0  0  0  0  0  0  0  0  0  0  0
    4.7753  -11.8920   22.2963 C   0  0  0  0  0  0  0  0  0  0  0  0
    5.0631  -10.4476   22.5481 C   0  0  0  0  0  0  0  0  0  0  0  0
    5.0248   -9.3606   21.6925 C   0  0  0  0  0  0  0  0  0  0  0  0
    5.3376   -8.1271   22.2496 N   0  0  0  0  0  0  0  0  0  0  0  0
    5.7018   -8.3173   23.4973 C   0  0  0  0  0  0  0  0  0  0  0  0
    6.2859   -6.9140   24.6541 Br  0  0  0  0  0  0  0  0  0  0  0  0
    5.6033   -9.9023   24.0747 S   0  0  0  0  0  0  0  0  0  0  0  0
    3.5049  -13.9241   25.3376 C   0  0  0  0  0  0  0  0  0  0  0  0
    2.2905  -13.3371   25.6632 C   0  0  0  0  0  0  0  0  0  0  0  0
    1.7407  -14.0364   26.7686 C   0  0  0  0  0  0  0  0  0  0  0  0
    2.6233  -15.0345   27.1024 C   0  0  0  0  0  0  0  0  0  0  0  0
    3.6908  -14.9462   26.2517 N   0  0  0  0  0  0  0  0  0  0  0  0
  1  2  2  0
  2  3  1  0
  3  4  1  0
  4  5  1  0
  5  6  2  0
  6  7  1  0
  7  8  2  0
  8  9  1  0
  8 10  1  0
  2 11  1  0
 11 12  2  0
 12 13  1  0
 13 14  2  0
 14 15  1  0
 10  5  1  0
 15 11  1  0
M  END
>  <placement_batch>  (164) 
CpKRS_FrAncestor_bulkdock_iter2_cluster_best5

>  <name>  (164) 
NOBSAZCWEWGOMP-UHFFFAOYSA-N-P64

>  <HIPPO Pose ID>  (164) 
60830

>  <inchikey>  (164) 
NOBSAZCWEWGOMP-UHFFFAOYSA-N

>  <inspiration_score>  (164) 
0.866

>  <tags>  (164) 
CpKRS_FrAncestor_bulkdock_iter2,CpKRS_FrAncestor_bulkdock_iter2_cluster_best5,BulkDock Fragalysis export,fragmenstein_placed,CpKRS_FrAncestor_bulkdock_iter2_exported

>  <distance_score>  (164) 
0.385174

>  <ref_pdb>  (164) 
x0654b

>  <alias>  (164) 
NOBSAZCWEWGOMP-UHFFFAOYSA-N-P64

>  <subsites>  (164) 


>  <smiles>  (164) 
O=C(NCc1cnc(Br)s1)c1ccc[nH]1

>  <HIPPO Compound ID>  (164) 
453078

>  <ref_mols>  (164) 
x0787b

>  <energy_score>  (164) 
-40.880307

$$$$
YVCRNIRPZBJNPP-UHFFFAOYSA-N-P64
     RDKit          3D

 15 16  0  0  0  0  0  0  0  0999 V2000
    5.6365  -13.9580   24.5098 O   0  0  0  0  0  0  0  0  0  0  0  0
    4.6305  -13.3876   24.3832 C   0  0  0  0  0  0  0  0  0  0  0  0
    4.2058  -12.3379   23.3477 N   0  0  0  0  0  0  0  0  0  0  0  0
    4.9580  -11.6976   22.3063 C   0  0  0  0  0  0  0  0  0  0  0  0
    5.1206  -10.2357   22.5543 C   0  0  0  0  0  0  0  0  0  0  0  0
    4.9936   -9.1882   21.6608 C   0  0  0  0  0  0  0  0  0  0  0  0
    5.2014   -7.9177   22.1671 N   0  0  0  0  0  0  0  0  0  0  0  0
    5.5782   -8.0193   23.4233 C   0  0  0  0  0  0  0  0  0  0  0  0
    5.6177   -9.6002   24.0638 S   0  0  0  0  0  0  0  0  0  0  0  0
    3.5278  -13.7172   25.2803 C   0  0  0  0  0  0  0  0  0  0  0  0
    2.1674  -13.4524   25.2488 C   0  0  0  0  0  0  0  0  0  0  0  0
    1.5836  -14.1183   26.3439 C   0  0  0  0  0  0  0  0  0  0  0  0
   -0.2562  -14.1405   26.6723 Br  0  0  0  0  0  0  0  0  0  0  0  0
    2.5673  -14.7511   27.0538 C   0  0  0  0  0  0  0  0  0  0  0  0
    3.7479  -14.4938   26.4072 N   0  0  0  0  0  0  0  0  0  0  0  0
  1  2  2  0
  2  3  1  0
  3  4  1  0
  4  5  1  0
  5  6  2  0
  6  7  1  0
  7  8  2  0
  8  9  1  0
  2 10  1  0
 10 11  2  0
 11 12  1  0
 12 13  1  0
 12 14  2  0
 14 15  1  0
  9  5  1  0
 15 10  1  0
M  END
>  <placement_batch>  (165) 
CpKRS_FrAncestor_bulkdock_iter2_cluster_best5

>  <name>  (165) 
YVCRNIRPZBJNPP-UHFFFAOYSA-N-P64

>  <HIPPO Pose ID>  (165) 
60838

>  <inchikey>  (165) 
YVCRNIRPZBJNPP-UHFFFAOYSA-N

>  <inspiration_score>  (165) 
0.83

>  <tags>  (165) 
CpKRS_FrAncestor_bulkdock_iter2,CpKRS_FrAncestor_bulkdock_iter2_cluster_best5,BulkDock Fragalysis export,fragmenstein_placed,CpKRS_FrAncestor_bulkdock_iter2_exported

>  <distance_score>  (165) 
0.526388

>  <ref_pdb>  (165) 
x0654b

>  <alias>  (165) 
YVCRNIRPZBJNPP-UHFFFAOYSA-N-P64

>  <subsites>  (165) 


>  <smiles>  (165) 
O=C(NCc1cncs1)c1cc(Br)c[nH]1

>  <HIPPO Compound ID>  (165) 
453079

>  <ref_mols>  (165) 
x0787b

>  <energy_score>  (165) 
-46.388703

$$$$
LAISAKIMTOJKMD-UHFFFAOYSA-N-P64
     RDKit          3D

 15 16  0  0  0  0  0  0  0  0999 V2000
    5.6031  -14.0683   24.4303 O   0  0  0  0  0  0  0  0  0  0  0  0
    4.6206  -13.4479   24.3736 C   0  0  0  0  0  0  0  0  0  0  0  0
    4.1937  -12.3491   23.3918 N   0  0  0  0  0  0  0  0  0  0  0  0
    4.9209  -11.7135   22.3289 C   0  0  0  0  0  0  0  0  0  0  0  0
    5.1004  -10.2514   22.5660 C   0  0  0  0  0  0  0  0  0  0  0  0
    4.9879   -9.2098   21.6632 C   0  0  0  0  0  0  0  0  0  0  0  0
    5.2076   -7.9374   22.1596 N   0  0  0  0  0  0  0  0  0  0  0  0
    5.5820   -8.0325   23.4169 C   0  0  0  0  0  0  0  0  0  0  0  0
    5.6042   -9.6087   24.0699 S   0  0  0  0  0  0  0  0  0  0  0  0
    3.5538  -13.7544   25.3226 C   0  0  0  0  0  0  0  0  0  0  0  0
    2.2108  -13.4160   25.3950 C   0  0  0  0  0  0  0  0  0  0  0  0
    1.6498  -14.0905   26.5059 C   0  0  0  0  0  0  0  0  0  0  0  0
    0.0145  -14.0311   26.9489 Cl  0  0  0  0  0  0  0  0  0  0  0  0
    2.6505  -14.8052   27.1135 C   0  0  0  0  0  0  0  0  0  0  0  0
    3.7991  -14.5874   26.4014 N   0  0  0  0  0  0  0  0  0  0  0  0
  1  2  2  0
  2  3  1  0
  3  4  1  0
  4  5  1  0
  5  6  2  0
  6  7  1  0
  7  8  2  0
  8  9  1  0
  2 10  1  0
 10 11  2  0
 11 12  1  0
 12 13  1  0
 12 14  2  0
 14 15  1  0
  9  5  1  0
 15 10  1  0
M  END
>  <placement_batch>  (166) 
CpKRS_FrAncestor_bulkdock_iter2_cluster_best5

>  <name>  (166) 
LAISAKIMTOJKMD-UHFFFAOYSA-N-P64

>  <HIPPO Pose ID>  (166) 
60844

>  <inchikey>  (166) 
LAISAKIMTOJKMD-UHFFFAOYSA-N

>  <inspiration_score>  (166) 
0.836

>  <tags>  (166) 
CpKRS_FrAncestor_bulkdock_iter2,CpKRS_FrAncestor_bulkdock_iter2_cluster_best5,BulkDock Fragalysis export,fragmenstein_placed,CpKRS_FrAncestor_bulkdock_iter2_exported

>  <distance_score>  (166) 
0.478618

>  <ref_pdb>  (166) 
x0654b

>  <alias>  (166) 
LAISAKIMTOJKMD-UHFFFAOYSA-N-P64

>  <subsites>  (166) 


>  <smiles>  (166) 
O=C(NCc1cncs1)c1cc(Cl)c[nH]1

>  <HIPPO Compound ID>  (166) 
453082

>  <ref_mols>  (166) 
x0787b

>  <energy_score>  (166) 
-32.357874

$$$$
TYDIPVMSOBKAOT-UHFFFAOYSA-N-P15
     RDKit          3D

 16 17  0  0  0  0  0  0  0  0999 V2000
    2.1203  -26.3877   12.6377 O   0  0  0  0  0  0  0  0  0  0  0  0
    1.8276  -25.4236   13.2219 C   0  0  0  0  0  0  0  0  0  0  0  0
    1.6298  -25.1931   14.7286 N   0  0  0  0  0  0  0  0  0  0  0  0
    1.6574  -26.1179   15.8239 C   0  0  0  0  0  0  0  0  0  0  0  0
    2.4875  -25.5979   16.9518 C   0  0  0  0  0  0  0  0  0  0  0  0
    3.4608  -24.6158   16.8876 C   0  0  0  0  0  0  0  0  0  0  0  0
    4.2167  -24.3065   18.3846 S   0  0  0  0  0  0  0  0  0  0  0  0
    3.2612  -25.4719   19.1413 C   0  0  0  0  0  0  0  0  0  0  0  0
    3.3853  -25.8612   20.9926 Br  0  0  0  0  0  0  0  0  0  0  0  0
    2.3856  -26.0982   18.2948 C   0  0  0  0  0  0  0  0  0  0  0  0
    1.5794  -24.1869   12.4311 C   0  0  0  0  0  0  0  0  0  0  0  0
    0.6200  -23.2335   12.7737 C   0  0  0  0  0  0  0  0  0  0  0  0
    0.4335  -22.1272   11.9487 C   0  0  0  0  0  0  0  0  0  0  0  0
    1.2096  -22.0110   10.8086 C   0  0  0  0  0  0  0  0  0  0  0  0
    2.1508  -22.9133   10.4429 N   0  0  0  0  0  0  0  0  0  0  0  0
    2.2912  -23.9957   11.2521 C   0  0  0  0  0  0  0  0  0  0  0  0
  1  2  2  0
  2  3  1  0
  3  4  1  0
  4  5  1  0
  5  6  2  0
  6  7  1  0
  7  8  1  0
  8  9  1  0
  8 10  2  0
  2 11  1  0
 11 12  2  0
 12 13  1  0
 13 14  2  0
 14 15  1  0
 15 16  2  0
 10  5  1  0
 16 11  1  0
M  END
>  <placement_batch>  (167) 
CpKRS_FrAncestor_bulkdock_iter2_cluster_best5

>  <name>  (167) 
TYDIPVMSOBKAOT-UHFFFAOYSA-N-P15

>  <HIPPO Pose ID>  (167) 
60921

>  <inchikey>  (167) 
TYDIPVMSOBKAOT-UHFFFAOYSA-N

>  <inspiration_score>  (167) 
0.832

>  <tags>  (167) 
CpKRS_FrAncestor_bulkdock_iter2,CpKRS_FrAncestor_bulkdock_iter2_cluster_best5,BulkDock Fragalysis export,fragmenstein_placed,CpKRS_FrAncestor_bulkdock_iter2_exported

>  <distance_score>  (167) 
0.416776

>  <ref_pdb>  (167) 
x0654b

>  <alias>  (167) 
TYDIPVMSOBKAOT-UHFFFAOYSA-N-P15

>  <subsites>  (167) 


>  <smiles>  (167) 
O=C(NCc1csc(Br)c1)c1cccnc1

>  <HIPPO Compound ID>  (167) 
453113

>  <ref_mols>  (167) 
x0426b

>  <energy_score>  (167) 
-6.472664

$$$$
BUAVMJLKYDWJSP-UHFFFAOYSA-N-P15
     RDKit          3D

 17 18  0  0  0  0  0  0  0  0999 V2000
    2.2031  -26.3950   12.7609 O   0  0  0  0  0  0  0  0  0  0  0  0
    1.8328  -25.4522   13.3371 C   0  0  0  0  0  0  0  0  0  0  0  0
    1.4780  -25.2668   14.8235 N   0  0  0  0  0  0  0  0  0  0  0  0
    1.5938  -26.1742   15.9306 C   0  0  0  0  0  0  0  0  0  0  0  0
    2.4738  -25.6179   17.0050 C   0  0  0  0  0  0  0  0  0  0  0  0
    3.3854  -24.5827   16.8848 C   0  0  0  0  0  0  0  0  0  0  0  0
    4.2365  -24.2540   18.3277 S   0  0  0  0  0  0  0  0  0  0  0  0
    3.3979  -25.4725   19.1367 C   0  0  0  0  0  0  0  0  0  0  0  0
    3.7378  -25.7743   20.7836 Cl  0  0  0  0  0  0  0  0  0  0  0  0
    2.4910  -26.1308   18.3499 C   0  0  0  0  0  0  0  0  0  0  0  0
    1.5805  -24.2201   12.5337 C   0  0  0  0  0  0  0  0  0  0  0  0
    2.3069  -24.0222   11.3579 C   0  0  0  0  0  0  0  0  0  0  0  0
    2.1633  -22.9467   10.5333 N   0  0  0  0  0  0  0  0  0  0  0  0
    1.2021  -22.0561   10.8882 C   0  0  0  0  0  0  0  0  0  0  0  0
    0.4177  -22.1923   12.0197 C   0  0  0  0  0  0  0  0  0  0  0  0
   -0.5108  -21.2807   12.3244 F   0  0  0  0  0  0  0  0  0  0  0  0
    0.5995  -23.2840   12.8547 C   0  0  0  0  0  0  0  0  0  0  0  0
  1  2  2  0
  2  3  1  0
  3  4  1  0
  4  5  1  0
  5  6  2  0
  6  7  1  0
  7  8  1  0
  8  9  1  0
  8 10  2  0
  2 11  1  0
 11 12  2  0
 12 13  1  0
 13 14  2  0
 14 15  1  0
 15 16  1  0
 15 17  2  0
 10  5  1  0
 17 11  1  0
M  END
>  <placement_batch>  (168) 
CpKRS_FrAncestor_bulkdock_iter2_cluster_best5

>  <name>  (168) 
BUAVMJLKYDWJSP-UHFFFAOYSA-N-P15

>  <HIPPO Pose ID>  (168) 
60929

>  <inchikey>  (168) 
BUAVMJLKYDWJSP-UHFFFAOYSA-N

>  <inspiration_score>  (168) 
0.811

>  <tags>  (168) 
CpKRS_FrAncestor_bulkdock_iter2,CpKRS_FrAncestor_bulkdock_iter2_cluster_best5,BulkDock Fragalysis export,fragmenstein_placed,CpKRS_FrAncestor_bulkdock_iter2_exported

>  <distance_score>  (168) 
0.435748

>  <ref_pdb>  (168) 
x0654b

>  <alias>  (168) 
BUAVMJLKYDWJSP-UHFFFAOYSA-N-P15

>  <subsites>  (168) 


>  <smiles>  (168) 
O=C(NCc1csc(Cl)c1)c1cncc(F)c1

>  <HIPPO Compound ID>  (168) 
453117

>  <ref_mols>  (168) 
x0426b

>  <energy_score>  (168) 
-6.475527

$$$$
HXVFYADYMIEXGT-UHFFFAOYSA-N-P55
     RDKit          3D

 15 16  0  0  0  0  0  0  0  0999 V2000
    5.7255  -13.9860   24.6907 O   0  0  0  0  0  0  0  0  0  0  0  0
    4.6086  -13.6643   24.7017 C   0  0  0  0  0  0  0  0  0  0  0  0
    3.8315  -12.7496   23.7559 N   0  0  0  0  0  0  0  0  0  0  0  0
    4.2331  -12.1117   22.5464 C   0  0  0  0  0  0  0  0  0  0  0  0
    4.5892  -10.6809   22.7986 C   0  0  0  0  0  0  0  0  0  0  0  0
    5.2812   -9.8730   21.9146 C   0  0  0  0  0  0  0  0  0  0  0  0
    5.5264   -8.3229   22.5893 S   0  0  0  0  0  0  0  0  0  0  0  0
    4.7228   -8.8286   24.0086 C   0  0  0  0  0  0  0  0  0  0  0  0
    4.2195  -10.0423   23.9835 N   0  0  0  0  0  0  0  0  0  0  0  0
    3.7368  -14.1870   25.7680 C   0  0  0  0  0  0  0  0  0  0  0  0
    2.3897  -13.9584   26.0249 C   0  0  0  0  0  0  0  0  0  0  0  0
    2.0353  -14.6670   27.1475 N   0  0  0  0  0  0  0  0  0  0  0  0
    3.1306  -15.3159   27.6242 C   0  0  0  0  0  0  0  0  0  0  0  0
    3.2192  -16.3083   29.2173 Br  0  0  0  0  0  0  0  0  0  0  0  0
    4.1828  -15.0869   26.7835 C   0  0  0  0  0  0  0  0  0  0  0  0
  1  2  2  0
  2  3  1  0
  3  4  1  0
  4  5  1  0
  5  6  2  0
  6  7  1  0
  7  8  1  0
  8  9  2  0
  2 10  1  0
 10 11  2  0
 11 12  1  0
 12 13  1  0
 13 14  1  0
 13 15  2  0
  9  5  1  0
 15 10  1  0
M  END
>  <placement_batch>  (169) 
CpKRS_FrAncestor_bulkdock_iter2_cluster_best5

>  <name>  (169) 
HXVFYADYMIEXGT-UHFFFAOYSA-N-P55

>  <HIPPO Pose ID>  (169) 
60933

>  <inchikey>  (169) 
HXVFYADYMIEXGT-UHFFFAOYSA-N

>  <inspiration_score>  (169) 
0.831

>  <tags>  (169) 
CpKRS_FrAncestor_bulkdock_iter2,CpKRS_FrAncestor_bulkdock_iter2_cluster_best5,BulkDock Fragalysis export,fragmenstein_placed,CpKRS_FrAncestor_bulkdock_iter2_exported

>  <distance_score>  (169) 
0.488465

>  <ref_pdb>  (169) 
x0654b

>  <alias>  (169) 
HXVFYADYMIEXGT-UHFFFAOYSA-N-P55

>  <subsites>  (169) 


>  <smiles>  (169) 
O=C(NCc1cscn1)c1c[nH]c(Br)c1

>  <HIPPO Compound ID>  (169) 
393622

>  <ref_mols>  (169) 
x0646a

>  <energy_score>  (169) 
-56.815079

$$$$
IPYYLDSLJLXPSX-UHFFFAOYSA-N-P46
     RDKit          3D

 15 16  0  0  0  0  0  0  0  0999 V2000
    5.5269  -12.2355   22.2566 O   0  0  0  0  0  0  0  0  0  0  0  0
    4.8549  -11.6716   23.0207 C   0  0  0  0  0  0  0  0  0  0  0  0
    4.1937  -12.1639   24.3243 N   0  0  0  0  0  0  0  0  0  0  0  0
    4.2996  -13.4197   25.0039 C   0  0  0  0  0  0  0  0  0  0  0  0
    3.1068  -13.6500   25.8630 C   0  0  0  0  0  0  0  0  0  0  0  0
    1.6492  -12.7431   25.7225 S   0  0  0  0  0  0  0  0  0  0  0  0
    1.0379  -13.5453   27.0966 C   0  0  0  0  0  0  0  0  0  0  0  0
    1.7747  -14.5063   27.5959 N   0  0  0  0  0  0  0  0  0  0  0  0
    2.9509  -14.5744   26.8768 C   0  0  0  0  0  0  0  0  0  0  0  0
    4.2710  -15.8378   27.3391 Br  0  0  0  0  0  0  0  0  0  0  0  0
    4.4233  -10.2154   22.8647 C   0  0  0  0  0  0  0  0  0  0  0  0
    4.8675   -9.3428   24.0527 C   0  0  0  0  0  0  0  0  0  0  0  0
    5.7625   -8.2680   23.4659 C   0  0  0  0  0  0  0  0  0  0  0  0
    5.2357   -8.1160   22.0553 C   0  0  0  0  0  0  0  0  0  0  0  0
    5.0347   -9.5522   21.6288 C   0  0  0  0  0  0  0  0  0  0  0  0
  1  2  2  0
  2  3  1  0
  3  4  1  0
  4  5  1  0
  5  6  1  0
  6  7  1  0
  7  8  2  0
  8  9  1  0
  9 10  1  0
  2 11  1  0
 11 12  1  0
 12 13  1  0
 13 14  1  0
 14 15  1  0
  9  5  2  0
 15 11  1  0
M  END
>  <placement_batch>  (170) 
CpKRS_FrAncestor_bulkdock_iter2_cluster_best5

>  <name>  (170) 
IPYYLDSLJLXPSX-UHFFFAOYSA-N-P46

>  <HIPPO Pose ID>  (170) 
61179

>  <inchikey>  (170) 
IPYYLDSLJLXPSX-UHFFFAOYSA-N

>  <inspiration_score>  (170) 
0.731

>  <tags>  (170) 
CpKRS_FrAncestor_bulkdock_iter2,CpKRS_FrAncestor_bulkdock_iter2_cluster_best5,BulkDock Fragalysis export,fragmenstein_placed,CpKRS_FrAncestor_bulkdock_iter2_exported

>  <distance_score>  (170) 
0.592642

>  <ref_pdb>  (170) 
x0654b

>  <alias>  (170) 
IPYYLDSLJLXPSX-UHFFFAOYSA-N-P46

>  <subsites>  (170) 


>  <smiles>  (170) 
O=C(NCc1scnc1Br)C1CCCC1

>  <HIPPO Compound ID>  (170) 
453158

>  <ref_mols>  (170) 
x0502c

>  <energy_score>  (170) 
-48.429861

$$$$
MGOPNOVXNVMOOB-WDSKDSINSA-N-P13
     RDKit          3D

 15 16  0  0  0  0  0  0  0  0999 V2000
    5.7471  -13.8597   24.8125 O   0  0  0  0  0  0  0  0  0  0  0  0
    4.6944  -13.3708   24.8814 C   0  0  0  0  0  0  0  0  0  0  0  0
    4.1902  -12.0206   24.3615 N   0  0  0  0  0  0  0  0  0  0  0  0
    4.8921  -10.9479   23.7322 C   0  0  1  0  0  0  0  0  0  0  0  0
    5.1694  -11.1830   22.2558 C   0  0  0  0  0  0  0  0  0  0  0  0
    5.4830   -9.7887   21.7139 C   0  0  0  0  0  0  0  0  0  0  0  0
    4.8915   -8.8007   22.7226 C   0  0  2  0  0  0  0  0  0  0  0  0
    6.1530   -7.8912   23.5863 Cl  0  0  0  0  0  0  0  0  0  0  0  0
    4.1102   -9.6452   23.7178 C   0  0  0  0  0  0  0  0  0  0  0  0
    3.6017  -13.9970   25.6404 C   0  0  0  0  0  0  0  0  0  0  0  0
    3.7708  -15.1046   26.4545 C   0  0  0  0  0  0  0  0  0  0  0  0
    2.3117  -15.4525   27.2756 S   0  0  0  0  0  0  0  0  0  0  0  0
    1.5690  -14.1752   26.4469 C   0  0  0  0  0  0  0  0  0  0  0  0
   -0.0984  -13.8490   26.6903 Cl  0  0  0  0  0  0  0  0  0  0  0  0
    2.3050  -13.4588   25.6377 N   0  0  0  0  0  0  0  0  0  0  0  0
  1  2  2  0
  2  3  1  0
  4  3  1  6
  4  5  1  0
  5  6  1  0
  6  7  1  0
  7  8  1  1
  7  9  1  0
  2 10  1  0
 10 11  2  0
 11 12  1  0
 12 13  1  0
 13 14  1  0
 13 15  2  0
  9  4  1  0
 15 10  1  0
M  END
>  <placement_batch>  (171) 
CpKRS_FrAncestor_bulkdock_iter2_cluster_best5

>  <name>  (171) 
MGOPNOVXNVMOOB-WDSKDSINSA-N-P13

>  <HIPPO Pose ID>  (171) 
61258

>  <inchikey>  (171) 
MGOPNOVXNVMOOB-UHFFFAOYSA-N

>  <inspiration_score>  (171) 
0.813

>  <tags>  (171) 
CpKRS_FrAncestor_bulkdock_iter2,CpKRS_FrAncestor_bulkdock_iter2_cluster_best5,BulkDock Fragalysis export,fragmenstein_placed,CpKRS_FrAncestor_bulkdock_iter2_exported

>  <distance_score>  (171) 
0.456033

>  <ref_pdb>  (171) 
x0654b

>  <alias>  (171) 
MGOPNOVXNVMOOB-WDSKDSINSA-N-P13

>  <subsites>  (171) 


>  <smiles>  (171) 
O=C(N[C@H]1CC[C@H](Cl)C1)c1csc(Cl)n1

>  <HIPPO Compound ID>  (171) 
453168

>  <ref_mols>  (171) 
x0421c

>  <energy_score>  (171) 
-44.132966

$$$$
KUUXRDZXONIESX-WDSKDSINSA-N-P13
     RDKit          3D

 15 16  0  0  0  0  0  0  0  0999 V2000
    5.3995  -13.8095   24.6143 O   0  0  0  0  0  0  0  0  0  0  0  0
    4.4148  -13.2116   24.7685 C   0  0  0  0  0  0  0  0  0  0  0  0
    4.0437  -11.7855   24.3521 N   0  0  0  0  0  0  0  0  0  0  0  0
    4.8299  -10.7643   23.7454 C   0  0  1  0  0  0  0  0  0  0  0  0
    5.1540  -11.0145   22.2815 C   0  0  0  0  0  0  0  0  0  0  0  0
    5.5456   -9.6348   21.7497 C   0  0  0  0  0  0  0  0  0  0  0  0
    5.0422   -8.6198   22.7805 C   0  0  2  0  0  0  0  0  0  0  0  0
    6.3649   -7.9020   23.7312 Cl  0  0  0  0  0  0  0  0  0  0  0  0
    4.1412   -9.4114   23.7139 C   0  0  0  0  0  0  0  0  0  0  0  0
    3.2777  -13.7503   25.5295 C   0  0  0  0  0  0  0  0  0  0  0  0
    2.0170  -13.1164   25.4949 N   0  0  0  0  0  0  0  0  0  0  0  0
    1.1957  -13.7472   26.3051 C   0  0  0  0  0  0  0  0  0  0  0  0
    1.8532  -15.0643   27.1774 S   0  0  0  0  0  0  0  0  0  0  0  0
    3.3319  -14.8297   26.3809 C   0  0  0  0  0  0  0  0  0  0  0  0
    4.6488  -15.8536   26.7559 Cl  0  0  0  0  0  0  0  0  0  0  0  0
  1  2  2  0
  2  3  1  0
  4  3  1  6
  4  5  1  0
  5  6  1  0
  6  7  1  0
  7  8  1  1
  7  9  1  0
  2 10  1  0
 10 11  1  0
 11 12  2  0
 12 13  1  0
 13 14  1  0
 14 15  1  0
  9  4  1  0
 14 10  2  0
M  END
>  <placement_batch>  (172) 
CpKRS_FrAncestor_bulkdock_iter2_cluster_best5

>  <name>  (172) 
KUUXRDZXONIESX-WDSKDSINSA-N-P13

>  <HIPPO Pose ID>  (172) 
61262

>  <inchikey>  (172) 
KUUXRDZXONIESX-UHFFFAOYSA-N

>  <inspiration_score>  (172) 
0.925

>  <tags>  (172) 
CpKRS_FrAncestor_bulkdock_iter2,CpKRS_FrAncestor_bulkdock_iter2_cluster_best5,BulkDock Fragalysis export,fragmenstein_placed,CpKRS_FrAncestor_bulkdock_iter2_exported

>  <distance_score>  (172) 
0.368382

>  <ref_pdb>  (172) 
x0654b

>  <alias>  (172) 
KUUXRDZXONIESX-WDSKDSINSA-N-P13

>  <subsites>  (172) 


>  <smiles>  (172) 
O=C(N[C@H]1CC[C@H](Cl)C1)c1ncsc1Cl

>  <HIPPO Compound ID>  (172) 
453169

>  <ref_mols>  (172) 
x0421c

>  <energy_score>  (172) 
-69.42846

$$$$
MUVIKWSNYIJHEW-UHFFFAOYSA-N-P35
     RDKit          3D

 16 17  0  0  0  0  0  0  0  0999 V2000
    5.5360  -13.5947   24.5242 O   0  0  0  0  0  0  0  0  0  0  0  0
    4.3609  -13.2783   24.6215 C   0  0  0  0  0  0  0  0  0  0  0  0
    3.6925  -12.4403   23.7873 O   0  0  0  0  0  0  0  0  0  0  0  0
    4.4144  -12.0083   22.6304 C   0  0  0  0  0  0  0  0  0  0  0  0
    4.8601  -10.6138   22.8607 C   0  0  0  0  0  0  0  0  0  0  0  0
    5.7766  -10.0531   23.7207 C   0  0  0  0  0  0  0  0  0  0  0  0
    5.8083   -8.6711   23.4579 C   0  0  0  0  0  0  0  0  0  0  0  0
    4.9230   -8.4766   22.4280 C   0  0  0  0  0  0  0  0  0  0  0  0
    4.3291   -9.6415   22.0656 O   0  0  0  0  0  0  0  0  0  0  0  0
    3.4882  -13.7256   25.7309 C   0  0  0  0  0  0  0  0  0  0  0  0
    3.9740  -14.6569   26.6463 C   0  0  0  0  0  0  0  0  0  0  0  0
    3.3164  -14.9758   27.7955 N   0  0  0  0  0  0  0  0  0  0  0  0
    2.1413  -14.3330   27.9599 C   0  0  0  0  0  0  0  0  0  0  0  0
    1.2218  -14.5353   29.5918 Br  0  0  0  0  0  0  0  0  0  0  0  0
    1.6305  -13.4457   27.0182 C   0  0  0  0  0  0  0  0  0  0  0  0
    2.2787  -13.1190   25.8819 N   0  0  0  0  0  0  0  0  0  0  0  0
  1  2  2  0
  2  3  1  0
  3  4  1  0
  4  5  1  0
  5  6  2  0
  6  7  1  0
  7  8  2  0
  8  9  1  0
  2 10  1  0
 10 11  2  0
 11 12  1  0
 12 13  2  0
 13 14  1  0
 13 15  1  0
 15 16  2  0
  9  5  1  0
 16 10  1  0
M  END
>  <placement_batch>  (173) 
CpKRS_FrAncestor_bulkdock_iter2_cluster_best5

>  <name>  (173) 
MUVIKWSNYIJHEW-UHFFFAOYSA-N-P35

>  <HIPPO Pose ID>  (173) 
61301

>  <inchikey>  (173) 
MUVIKWSNYIJHEW-UHFFFAOYSA-N

>  <inspiration_score>  (173) 
0.851

>  <tags>  (173) 
CpKRS_FrAncestor_bulkdock_iter2,CpKRS_FrAncestor_bulkdock_iter2_cluster_best5,BulkDock Fragalysis export,fragmenstein_placed,CpKRS_FrAncestor_bulkdock_iter2_exported

>  <distance_score>  (173) 
0.38247

>  <ref_pdb>  (173) 
x0654b

>  <alias>  (173) 
MUVIKWSNYIJHEW-UHFFFAOYSA-N-P35

>  <subsites>  (173) 


>  <smiles>  (173) 
O=C(OCc1ccco1)c1cnc(Br)cn1

>  <HIPPO Compound ID>  (173) 
192429

>  <ref_mols>  (173) 
x0492b

>  <energy_score>  (173) 
-18.969802

$$$$
GCGRUALTAVTMMW-UHFFFAOYSA-N-P34
     RDKit          3D

 16 17  0  0  0  0  0  0  0  0999 V2000
    5.5569  -13.5646   24.5046 O   0  0  0  0  0  0  0  0  0  0  0  0
    4.3855  -13.2282   24.5583 C   0  0  0  0  0  0  0  0  0  0  0  0
    3.7679  -12.3573   23.7213 O   0  0  0  0  0  0  0  0  0  0  0  0
    4.5464  -11.8931   22.6123 C   0  0  0  0  0  0  0  0  0  0  0  0
    4.9250  -10.4811   22.8701 C   0  0  0  0  0  0  0  0  0  0  0  0
    5.7880   -9.8773   23.7580 C   0  0  0  0  0  0  0  0  0  0  0  0
    5.7553   -8.4918   23.5000 C   0  0  0  0  0  0  0  0  0  0  0  0
    4.8843   -8.3359   22.4516 C   0  0  0  0  0  0  0  0  0  0  0  0
    4.3702   -9.5303   22.0644 O   0  0  0  0  0  0  0  0  0  0  0  0
    3.4611  -13.7068   25.6097 C   0  0  0  0  0  0  0  0  0  0  0  0
    3.9143  -14.6477   26.5343 C   0  0  0  0  0  0  0  0  0  0  0  0
    3.1643  -15.0566   27.5953 N   0  0  0  0  0  0  0  0  0  0  0  0
    1.9415  -14.4819   27.6635 C   0  0  0  0  0  0  0  0  0  0  0  0
    1.4888  -13.5700   26.7158 C   0  0  0  0  0  0  0  0  0  0  0  0
   -0.0820  -12.8834   26.7604 Cl  0  0  0  0  0  0  0  0  0  0  0  0
    2.2202  -13.1549   25.6728 N   0  0  0  0  0  0  0  0  0  0  0  0
  1  2  2  0
  2  3  1  0
  3  4  1  0
  4  5  1  0
  5  6  2  0
  6  7  1  0
  7  8  2  0
  8  9  1  0
  2 10  1  0
 10 11  2  0
 11 12  1  0
 12 13  2  0
 13 14  1  0
 14 15  1  0
 14 16  2  0
  9  5  1  0
 16 10  1  0
M  END
>  <placement_batch>  (174) 
CpKRS_FrAncestor_bulkdock_iter2_cluster_best5

>  <name>  (174) 
GCGRUALTAVTMMW-UHFFFAOYSA-N-P34

>  <HIPPO Pose ID>  (174) 
61302

>  <inchikey>  (174) 
GCGRUALTAVTMMW-UHFFFAOYSA-N

>  <inspiration_score>  (174) 
0.859

>  <tags>  (174) 
CpKRS_FrAncestor_bulkdock_iter2,CpKRS_FrAncestor_bulkdock_iter2_cluster_best5,BulkDock Fragalysis export,fragmenstein_placed,CpKRS_FrAncestor_bulkdock_iter2_exported

>  <distance_score>  (174) 
0.34607

>  <ref_pdb>  (174) 
x0654b

>  <alias>  (174) 
GCGRUALTAVTMMW-UHFFFAOYSA-N-P34

>  <subsites>  (174) 


>  <smiles>  (174) 
O=C(OCc1ccco1)c1cncc(Cl)n1

>  <HIPPO Compound ID>  (174) 
204065

>  <ref_mols>  (174) 
x0492a

>  <energy_score>  (174) 
-24.19732

$$$$
YWCGHZWFOYQNDR-UHFFFAOYSA-N-P35
     RDKit          3D

 16 17  0  0  0  0  0  0  0  0999 V2000
    5.5317  -13.5966   24.5788 O   0  0  0  0  0  0  0  0  0  0  0  0
    4.3544  -13.2872   24.6738 C   0  0  0  0  0  0  0  0  0  0  0  0
    3.6820  -12.4551   23.8368 O   0  0  0  0  0  0  0  0  0  0  0  0
    4.3973  -12.0323   22.6718 C   0  0  0  0  0  0  0  0  0  0  0  0
    4.8421  -10.6344   22.8848 C   0  0  0  0  0  0  0  0  0  0  0  0
    5.7718  -10.0637   23.7239 C   0  0  0  0  0  0  0  0  0  0  0  0
    5.7939   -8.6835   23.4500 C   0  0  0  0  0  0  0  0  0  0  0  0
    4.8896   -8.4999   22.4348 C   0  0  0  0  0  0  0  0  0  0  0  0
    4.2938   -9.6699   22.0919 O   0  0  0  0  0  0  0  0  0  0  0  0
    3.4804  -13.7413   25.7811 C   0  0  0  0  0  0  0  0  0  0  0  0
    3.9677  -14.6757   26.6954 C   0  0  0  0  0  0  0  0  0  0  0  0
    3.3059  -15.0096   27.8395 N   0  0  0  0  0  0  0  0  0  0  0  0
    2.1252  -14.3778   27.9899 C   0  0  0  0  0  0  0  0  0  0  0  0
    1.3219  -14.6514   29.4721 Cl  0  0  0  0  0  0  0  0  0  0  0  0
    1.6114  -13.4837   27.0601 C   0  0  0  0  0  0  0  0  0  0  0  0
    2.2656  -13.1415   25.9309 N   0  0  0  0  0  0  0  0  0  0  0  0
  1  2  2  0
  2  3  1  0
  3  4  1  0
  4  5  1  0
  5  6  2  0
  6  7  1  0
  7  8  2  0
  8  9  1  0
  2 10  1  0
 10 11  2  0
 11 12  1  0
 12 13  2  0
 13 14  1  0
 13 15  1  0
 15 16  2  0
  9  5  1  0
 16 10  1  0
M  END
>  <placement_batch>  (175) 
CpKRS_FrAncestor_bulkdock_iter2_cluster_best5

>  <name>  (175) 
YWCGHZWFOYQNDR-UHFFFAOYSA-N-P35

>  <HIPPO Pose ID>  (175) 
61305

>  <inchikey>  (175) 
YWCGHZWFOYQNDR-UHFFFAOYSA-N

>  <inspiration_score>  (175) 
0.857

>  <tags>  (175) 
CpKRS_FrAncestor_bulkdock_iter2,CpKRS_FrAncestor_bulkdock_iter2_cluster_best5,BulkDock Fragalysis export,fragmenstein_placed,CpKRS_FrAncestor_bulkdock_iter2_exported

>  <distance_score>  (175) 
0.36388

>  <ref_pdb>  (175) 
x0654b

>  <alias>  (175) 
YWCGHZWFOYQNDR-UHFFFAOYSA-N-P35

>  <subsites>  (175) 


>  <smiles>  (175) 
O=C(OCc1ccco1)c1cnc(Cl)cn1

>  <HIPPO Compound ID>  (175) 
201812

>  <ref_mols>  (175) 
x0492b

>  <energy_score>  (175) 
-23.651074

$$$$
TXBARSAIXIWPIW-UHFFFAOYSA-N-P35
     RDKit          3D

 15 16  0  0  0  0  0  0  0  0999 V2000
    5.4467  -13.5926   24.6765 O   0  0  0  0  0  0  0  0  0  0  0  0
    4.2700  -13.3135   24.8574 C   0  0  0  0  0  0  0  0  0  0  0  0
    3.5342  -12.4727   24.0809 O   0  0  0  0  0  0  0  0  0  0  0  0
    4.1501  -12.0751   22.8495 C   0  0  0  0  0  0  0  0  0  0  0  0
    4.6756  -10.6955   22.9973 C   0  0  0  0  0  0  0  0  0  0  0  0
    5.7002  -10.1564   23.7414 C   0  0  0  0  0  0  0  0  0  0  0  0
    5.7701   -8.7847   23.4309 C   0  0  0  0  0  0  0  0  0  0  0  0
    4.7981   -8.5754   22.4855 C   0  0  0  0  0  0  0  0  0  0  0  0
    4.1172   -9.7202   22.2235 O   0  0  0  0  0  0  0  0  0  0  0  0
    3.4702  -13.8333   25.9966 C   0  0  0  0  0  0  0  0  0  0  0  0
    4.0300  -14.7967   26.8317 C   0  0  0  0  0  0  0  0  0  0  0  0
    3.4314  -15.2185   27.9828 N   0  0  0  0  0  0  0  0  0  0  0  0
    2.2303  -14.6539   28.2255 C   0  0  0  0  0  0  0  0  0  0  0  0
    1.6551  -13.7207   27.3744 C   0  0  0  0  0  0  0  0  0  0  0  0
    2.2476  -13.2836   26.2447 N   0  0  0  0  0  0  0  0  0  0  0  0
  1  2  2  0
  2  3  1  0
  3  4  1  0
  4  5  1  0
  5  6  2  0
  6  7  1  0
  7  8  2  0
  8  9  1  0
  2 10  1  0
 10 11  2  0
 11 12  1  0
 12 13  2  0
 13 14  1  0
 14 15  2  0
  9  5  1  0
 15 10  1  0
M  END
>  <placement_batch>  (176) 
CpKRS_FrAncestor_bulkdock_iter2_cluster_best5

>  <name>  (176) 
TXBARSAIXIWPIW-UHFFFAOYSA-N-P35

>  <HIPPO Pose ID>  (176) 
61307

>  <inchikey>  (176) 
TXBARSAIXIWPIW-UHFFFAOYSA-N

>  <inspiration_score>  (176) 
0.866

>  <tags>  (176) 
CpKRS_FrAncestor_bulkdock_iter2,CpKRS_FrAncestor_bulkdock_iter2_cluster_best5,BulkDock Fragalysis export,fragmenstein_placed,CpKRS_FrAncestor_bulkdock_iter2_exported

>  <distance_score>  (176) 
0.359409

>  <ref_pdb>  (176) 
x0654b

>  <alias>  (176) 
TXBARSAIXIWPIW-UHFFFAOYSA-N-P35

>  <subsites>  (176) 


>  <smiles>  (176) 
O=C(OCc1ccco1)c1cnccn1

>  <HIPPO Compound ID>  (176) 
203080

>  <ref_mols>  (176) 
x0492b

>  <energy_score>  (176) 
-18.760127

$$$$
VYFGLVMCPNLKLM-UHFFFAOYSA-N-P35
     RDKit          3D

 16 17  0  0  0  0  0  0  0  0999 V2000
    5.4652  -13.4653   24.6459 O   0  0  0  0  0  0  0  0  0  0  0  0
    4.2735  -13.2558   24.8035 C   0  0  0  0  0  0  0  0  0  0  0  0
    3.5250  -12.4578   23.9890 O   0  0  0  0  0  0  0  0  0  0  0  0
    4.1670  -12.0399   22.7772 C   0  0  0  0  0  0  0  0  0  0  0  0
    4.6932  -10.6650   22.9586 C   0  0  0  0  0  0  0  0  0  0  0  0
    5.7032  -10.1415   23.7334 C   0  0  0  0  0  0  0  0  0  0  0  0
    5.7866   -8.7663   23.4436 C   0  0  0  0  0  0  0  0  0  0  0  0
    4.8371   -8.5393   22.4796 C   0  0  0  0  0  0  0  0  0  0  0  0
    4.1554   -9.6763   22.1877 O   0  0  0  0  0  0  0  0  0  0  0  0
    3.4416  -13.7788   25.9258 C   0  0  0  0  0  0  0  0  0  0  0  0
    2.1986  -13.2181   26.0760 N   0  0  0  0  0  0  0  0  0  0  0  0
    1.5218  -13.5992   27.1766 C   0  0  0  0  0  0  0  0  0  0  0  0
    2.0272  -14.5006   28.0987 C   0  0  0  0  0  0  0  0  0  0  0  0
    3.2353  -15.0779   27.9596 N   0  0  0  0  0  0  0  0  0  0  0  0
    3.9286  -14.7096   26.8414 C   0  0  0  0  0  0  0  0  0  0  0  0
    5.4760  -15.4421   26.7992 Cl  0  0  0  0  0  0  0  0  0  0  0  0
  1  2  2  0
  2  3  1  0
  3  4  1  0
  4  5  1  0
  5  6  2  0
  6  7  1  0
  7  8  2  0
  8  9  1  0
  2 10  1  0
 10 11  2  0
 11 12  1  0
 12 13  2  0
 13 14  1  0
 14 15  2  0
 15 16  1  0
  9  5  1  0
 15 10  1  0
M  END
>  <placement_batch>  (177) 
CpKRS_FrAncestor_bulkdock_iter2_cluster_best5

>  <name>  (177) 
VYFGLVMCPNLKLM-UHFFFAOYSA-N-P35

>  <HIPPO Pose ID>  (177) 
61309

>  <inchikey>  (177) 
VYFGLVMCPNLKLM-UHFFFAOYSA-N

>  <inspiration_score>  (177) 
0.858

>  <tags>  (177) 
CpKRS_FrAncestor_bulkdock_iter2,CpKRS_FrAncestor_bulkdock_iter2_cluster_best5,BulkDock Fragalysis export,fragmenstein_placed,CpKRS_FrAncestor_bulkdock_iter2_exported

>  <distance_score>  (177) 
0.380577

>  <ref_pdb>  (177) 
x0654b

>  <alias>  (177) 
VYFGLVMCPNLKLM-UHFFFAOYSA-N-P35

>  <subsites>  (177) 


>  <smiles>  (177) 
O=C(OCc1ccco1)c1nccnc1Cl

>  <HIPPO Compound ID>  (177) 
181325

>  <ref_mols>  (177) 
x0492b

>  <energy_score>  (177) 
-27.235603

$$$$
NTSJPRPGLLYRDJ-UHFFFAOYSA-N-P35
     RDKit          3D

 15 16  0  0  0  0  0  0  0  0999 V2000
    5.6168  -13.8052   24.9471 O   0  0  0  0  0  0  0  0  0  0  0  0
    4.4503  -13.4525   25.0435 C   0  0  0  0  0  0  0  0  0  0  0  0
    3.8163  -12.5833   24.2131 O   0  0  0  0  0  0  0  0  0  0  0  0
    4.5557  -12.2145   23.0434 C   0  0  0  0  0  0  0  0  0  0  0  0
    4.9608  -10.7719   23.1497 C   0  0  0  0  0  0  0  0  0  0  0  0
    5.6646  -10.2272   24.1247 N   0  0  0  0  0  0  0  0  0  0  0  0
    5.8997   -8.8943   23.8562 C   0  0  0  0  0  0  0  0  0  0  0  0
    5.3657   -8.4277   22.6792 C   0  0  0  0  0  0  0  0  0  0  0  0
    4.5519   -9.6897   21.8738 S   0  0  0  0  0  0  0  0  0  0  0  0
    3.5467  -13.9233   26.1225 C   0  0  0  0  0  0  0  0  0  0  0  0
    4.0097  -14.8947   27.0061 C   0  0  0  0  0  0  0  0  0  0  0  0
    3.3236  -15.2669   28.1241 N   0  0  0  0  0  0  0  0  0  0  0  0
    2.1363  -14.6447   28.2806 C   0  0  0  0  0  0  0  0  0  0  0  0
    1.6534  -13.7088   27.3755 C   0  0  0  0  0  0  0  0  0  0  0  0
    2.3335  -13.3208   26.2781 N   0  0  0  0  0  0  0  0  0  0  0  0
  1  2  2  0
  2  3  1  0
  3  4  1  0
  4  5  1  0
  5  6  2  0
  6  7  1  0
  7  8  2  0
  8  9  1  0
  2 10  1  0
 10 11  2  0
 11 12  1  0
 12 13  2  0
 13 14  1  0
 14 15  2  0
  9  5  1  0
 15 10  1  0
M  END
>  <placement_batch>  (178) 
CpKRS_FrAncestor_bulkdock_iter2_cluster_best5

>  <name>  (178) 
NTSJPRPGLLYRDJ-UHFFFAOYSA-N-P35

>  <HIPPO Pose ID>  (178) 
61311

>  <inchikey>  (178) 
NTSJPRPGLLYRDJ-UHFFFAOYSA-N

>  <inspiration_score>  (178) 
0.874

>  <tags>  (178) 
CpKRS_FrAncestor_bulkdock_iter2,CpKRS_FrAncestor_bulkdock_iter2_cluster_best5,BulkDock Fragalysis export,fragmenstein_placed,CpKRS_FrAncestor_bulkdock_iter2_exported

>  <distance_score>  (178) 
0.287853

>  <ref_pdb>  (178) 
x0654b

>  <alias>  (178) 
NTSJPRPGLLYRDJ-UHFFFAOYSA-N-P35

>  <subsites>  (178) 


>  <smiles>  (178) 
O=C(OCc1nccs1)c1cnccn1

>  <HIPPO Compound ID>  (178) 
168353

>  <ref_mols>  (178) 
x0492b

>  <energy_score>  (178) 
-45.392846

$$$$
VLZOBMHSBRUQLQ-UHFFFAOYSA-N-P17
     RDKit          3D

 18 19  0  0  0  0  0  0  0  0999 V2000
    5.4508  -13.3248   25.0723 O   0  0  0  0  0  0  0  0  0  0  0  0
    4.3276  -13.4243   24.7711 C   0  0  0  0  0  0  0  0  0  0  0  0
    3.5758  -12.9117   23.5189 N   0  0  0  0  0  0  0  0  0  0  0  0
    4.0087  -12.1290   22.4778 N   0  0  0  0  0  0  0  0  0  0  0  0
    4.3573  -10.7958   22.8262 C   0  0  0  0  0  0  0  0  0  0  0  0
    4.0198  -10.1824   24.0405 C   0  0  0  0  0  0  0  0  0  0  0  0
    4.3738   -8.8546   24.3123 C   0  0  0  0  0  0  0  0  0  0  0  0
    5.0338   -8.0995   23.3520 C   0  0  0  0  0  0  0  0  0  0  0  0
    5.3159   -8.6693   22.1181 C   0  0  0  0  0  0  0  0  0  0  0  0
    4.9775   -9.9994   21.8581 C   0  0  0  0  0  0  0  0  0  0  0  0
    3.4059  -14.0591   25.7742 C   0  0  0  0  0  0  0  0  0  0  0  0
    2.0483  -13.7221   25.8728 C   0  0  0  0  0  0  0  0  0  0  0  0
    1.2799  -14.2582   26.9012 C   0  0  0  0  0  0  0  0  0  0  0  0
   -0.0190  -13.9377   26.9862 F   0  0  0  0  0  0  0  0  0  0  0  0
    1.8363  -15.0823   27.8646 C   0  0  0  0  0  0  0  0  0  0  0  0
    3.1821  -15.4005   27.7750 C   0  0  0  0  0  0  0  0  0  0  0  0
    3.7323  -16.1658   28.7280 F   0  0  0  0  0  0  0  0  0  0  0  0
    3.9693  -14.9071   26.7404 C   0  0  0  0  0  0  0  0  0  0  0  0
  1  2  2  0
  2  3  1  0
  3  4  1  0
  4  5  1  0
  5  6  2  0
  6  7  1  0
  7  8  2  0
  8  9  1  0
  9 10  2  0
  2 11  1  0
 11 12  2  0
 12 13  1  0
 13 14  1  0
 13 15  2  0
 15 16  1  0
 16 17  1  0
 16 18  2  0
 10  5  1  0
 18 11  1  0
M  END
>  <placement_batch>  (179) 
CpKRS_FrAncestor_bulkdock_iter2_cluster_best5

>  <name>  (179) 
VLZOBMHSBRUQLQ-UHFFFAOYSA-N-P17

>  <HIPPO Pose ID>  (179) 
61321

>  <inchikey>  (179) 
VLZOBMHSBRUQLQ-UHFFFAOYSA-N

>  <inspiration_score>  (179) 
0.875

>  <tags>  (179) 
CpKRS_FrAncestor_bulkdock_iter2,CpKRS_FrAncestor_bulkdock_iter2_cluster_best5,BulkDock Fragalysis export,fragmenstein_placed,CpKRS_FrAncestor_bulkdock_iter2_exported

>  <distance_score>  (179) 
0.465306

>  <ref_pdb>  (179) 
x0654b

>  <alias>  (179) 
VLZOBMHSBRUQLQ-UHFFFAOYSA-N-P17

>  <subsites>  (179) 


>  <smiles>  (179) 
O=C(NNc1ccccc1)c1cc(F)cc(F)c1

>  <HIPPO Compound ID>  (179) 
364117

>  <ref_mols>  (179) 
x0434a

>  <energy_score>  (179) 
-13.141033

$$$$
ZKBYFGZNLFTCCV-UHFFFAOYSA-N-P58
     RDKit          3D

 17 18  0  0  0  0  0  0  0  0999 V2000
    5.4374  -13.8323   25.1803 O   0  0  0  0  0  0  0  0  0  0  0  0
    4.2884  -14.0044   25.0541 C   0  0  0  0  0  0  0  0  0  0  0  0
    3.3048  -13.4774   23.9747 N   0  0  0  0  0  0  0  0  0  0  0  0
    3.5392  -12.7461   22.8348 N   0  0  0  0  0  0  0  0  0  0  0  0
    4.0741  -11.4683   23.1183 C   0  0  0  0  0  0  0  0  0  0  0  0
    3.6838  -10.7366   24.2530 C   0  0  0  0  0  0  0  0  0  0  0  0
    4.2329   -9.4866   24.5324 C   0  0  0  0  0  0  0  0  0  0  0  0
    5.1621   -8.9401   23.6596 C   0  0  0  0  0  0  0  0  0  0  0  0
    5.9840   -7.3154   24.1269 Br  0  0  0  0  0  0  0  0  0  0  0  0
    5.4922   -9.5967   22.4789 C   0  0  0  0  0  0  0  0  0  0  0  0
    4.9386  -10.8532   22.2094 C   0  0  0  0  0  0  0  0  0  0  0  0
    3.4969  -14.7587   26.0831 C   0  0  0  0  0  0  0  0  0  0  0  0
    4.1062  -15.7418   26.7667 C   0  0  0  0  0  0  0  0  0  0  0  0
    3.4639  -16.4332   27.9282 C   0  0  0  0  0  0  0  0  0  0  0  0
    2.0954  -16.0678   28.1361 O   0  0  0  0  0  0  0  0  0  0  0  0
    1.8774  -14.6721   27.9637 C   0  0  0  0  0  0  0  0  0  0  0  0
    2.1424  -14.2792   26.5131 C   0  0  0  0  0  0  0  0  0  0  0  0
  1  2  2  0
  2  3  1  0
  3  4  1  0
  4  5  1  0
  5  6  2  0
  6  7  1  0
  7  8  2  0
  8  9  1  0
  8 10  1  0
 10 11  2  0
  2 12  1  0
 12 13  2  0
 13 14  1  0
 14 15  1  0
 15 16  1  0
 16 17  1  0
 11  5  1  0
 17 12  1  0
M  END
>  <placement_batch>  (180) 
CpKRS_FrAncestor_bulkdock_iter2_cluster_best5

>  <name>  (180) 
ZKBYFGZNLFTCCV-UHFFFAOYSA-N-P58

>  <HIPPO Pose ID>  (180) 
61324

>  <inchikey>  (180) 
ZKBYFGZNLFTCCV-UHFFFAOYSA-N

>  <inspiration_score>  (180) 
0.796

>  <tags>  (180) 
CpKRS_FrAncestor_bulkdock_iter2,CpKRS_FrAncestor_bulkdock_iter2_cluster_best5,BulkDock Fragalysis export,fragmenstein_placed,CpKRS_FrAncestor_bulkdock_iter2_exported

>  <distance_score>  (180) 
0.353633

>  <ref_pdb>  (180) 
x0654b

>  <alias>  (180) 
ZKBYFGZNLFTCCV-UHFFFAOYSA-N-P58

>  <subsites>  (180) 


>  <smiles>  (180) 
O=C(NNc1ccc(Br)cc1)C1=CCOCC1

>  <HIPPO Compound ID>  (180) 
165209

>  <ref_mols>  (180) 
x0654c

>  <energy_score>  (180) 
-0.45942

$$$$
PLQGSGAGDBRLRE-UHFFFAOYSA-N-P58
     RDKit          3D

 20 21  0  0  0  0  0  0  0  0999 V2000
    5.4775  -13.8739   25.1707 O   0  0  0  0  0  0  0  0  0  0  0  0
    4.3209  -14.0106   25.0718 C   0  0  0  0  0  0  0  0  0  0  0  0
    3.3406  -13.5243   23.9694 N   0  0  0  0  0  0  0  0  0  0  0  0
    3.5581  -12.7304   22.8701 N   0  0  0  0  0  0  0  0  0  0  0  0
    4.1322  -11.4735   23.1588 C   0  0  0  0  0  0  0  0  0  0  0  0
    4.9496  -10.8632   22.2067 C   0  0  0  0  0  0  0  0  0  0  0  0
    5.5090   -9.6032   22.4349 C   0  0  0  0  0  0  0  0  0  0  0  0
    5.2422   -8.9060   23.6213 C   0  0  0  0  0  0  0  0  0  0  0  0
    5.8771   -7.5638   23.8548 C   0  0  0  0  0  0  0  0  0  0  0  0
    7.2241   -7.6171   23.9809 F   0  0  0  0  0  0  0  0  0  0  0  0
    5.6255   -6.7298   22.8085 F   0  0  0  0  0  0  0  0  0  0  0  0
    5.4333   -6.9032   24.9540 F   0  0  0  0  0  0  0  0  0  0  0  0
    4.3709   -9.4771   24.5499 C   0  0  0  0  0  0  0  0  0  0  0  0
    3.8159  -10.7405   24.3123 C   0  0  0  0  0  0  0  0  0  0  0  0
    3.5249  -14.6971   26.1467 C   0  0  0  0  0  0  0  0  0  0  0  0
    4.1227  -15.6831   26.8380 C   0  0  0  0  0  0  0  0  0  0  0  0
    3.4676  -16.3733   27.9924 C   0  0  0  0  0  0  0  0  0  0  0  0
    2.0880  -16.0291   28.1574 O   0  0  0  0  0  0  0  0  0  0  0  0
    1.8627  -14.6329   27.9967 C   0  0  0  0  0  0  0  0  0  0  0  0
    2.1671  -14.2160   26.5598 C   0  0  0  0  0  0  0  0  0  0  0  0
  1  2  2  0
  2  3  1  0
  3  4  1  0
  4  5  1  0
  5  6  2  0
  6  7  1  0
  7  8  2  0
  8  9  1  0
  9 10  1  0
  9 11  1  0
  9 12  1  0
  8 13  1  0
 13 14  2  0
  2 15  1  0
 15 16  2  0
 16 17  1  0
 17 18  1  0
 18 19  1  0
 19 20  1  0
 14  5  1  0
 20 15  1  0
M  END
>  <placement_batch>  (181) 
CpKRS_FrAncestor_bulkdock_iter2_cluster_best5

>  <name>  (181) 
PLQGSGAGDBRLRE-UHFFFAOYSA-N-P58

>  <HIPPO Pose ID>  (181) 
61327

>  <inchikey>  (181) 
PLQGSGAGDBRLRE-UHFFFAOYSA-N

>  <inspiration_score>  (181) 
0.802

>  <tags>  (181) 
CpKRS_FrAncestor_bulkdock_iter2,CpKRS_FrAncestor_bulkdock_iter2_cluster_best5,BulkDock Fragalysis export,fragmenstein_placed,CpKRS_FrAncestor_bulkdock_iter2_exported

>  <distance_score>  (181) 
0.44001

>  <ref_pdb>  (181) 
x0654b

>  <alias>  (181) 
PLQGSGAGDBRLRE-UHFFFAOYSA-N-P58

>  <subsites>  (181) 


>  <smiles>  (181) 
O=C(NNc1ccc(C(F)(F)F)cc1)C1=CCOCC1

>  <HIPPO Compound ID>  (181) 
453173

>  <ref_mols>  (181) 
x0654c

>  <energy_score>  (181) 
-26.757724

$$$$
OMGSGWMZPFUHKW-UHFFFAOYSA-N-P58
     RDKit          3D

 17 18  0  0  0  0  0  0  0  0999 V2000
    5.5155  -13.8225   25.1510 O   0  0  0  0  0  0  0  0  0  0  0  0
    4.3661  -13.9887   25.0192 C   0  0  0  0  0  0  0  0  0  0  0  0
    3.4047  -13.5232   23.8916 N   0  0  0  0  0  0  0  0  0  0  0  0
    3.6321  -12.7191   22.8013 N   0  0  0  0  0  0  0  0  0  0  0  0
    4.1671  -11.4491   23.1068 C   0  0  0  0  0  0  0  0  0  0  0  0
    4.9613  -10.7933   22.1605 C   0  0  0  0  0  0  0  0  0  0  0  0
    5.4936   -9.5243   22.4117 C   0  0  0  0  0  0  0  0  0  0  0  0
    5.2122   -8.8874   23.6140 C   0  0  0  0  0  0  0  0  0  0  0  0
    5.9078   -7.3631   23.9778 Cl  0  0  0  0  0  0  0  0  0  0  0  0
    4.3602   -9.4808   24.5358 C   0  0  0  0  0  0  0  0  0  0  0  0
    3.8325  -10.7485   24.2755 C   0  0  0  0  0  0  0  0  0  0  0  0
    3.5540  -14.6920   26.0701 C   0  0  0  0  0  0  0  0  0  0  0  0
    4.1438  -15.6673   26.7828 C   0  0  0  0  0  0  0  0  0  0  0  0
    3.4690  -16.3494   27.9317 C   0  0  0  0  0  0  0  0  0  0  0  0
    2.0871  -16.0027   28.0739 O   0  0  0  0  0  0  0  0  0  0  0  0
    1.8639  -14.6082   27.8907 C   0  0  0  0  0  0  0  0  0  0  0  0
    2.1858  -14.2125   26.4514 C   0  0  0  0  0  0  0  0  0  0  0  0
  1  2  2  0
  2  3  1  0
  3  4  1  0
  4  5  1  0
  5  6  2  0
  6  7  1  0
  7  8  2  0
  8  9  1  0
  8 10  1  0
 10 11  2  0
  2 12  1  0
 12 13  2  0
 13 14  1  0
 14 15  1  0
 15 16  1  0
 16 17  1  0
 11  5  1  0
 17 12  1  0
M  END
>  <placement_batch>  (182) 
CpKRS_FrAncestor_bulkdock_iter2_cluster_best5

>  <name>  (182) 
OMGSGWMZPFUHKW-UHFFFAOYSA-N-P58

>  <HIPPO Pose ID>  (182) 
61330

>  <inchikey>  (182) 
OMGSGWMZPFUHKW-UHFFFAOYSA-N

>  <inspiration_score>  (182) 
0.777

>  <tags>  (182) 
CpKRS_FrAncestor_bulkdock_iter2,CpKRS_FrAncestor_bulkdock_iter2_cluster_best5,BulkDock Fragalysis export,fragmenstein_placed,CpKRS_FrAncestor_bulkdock_iter2_exported

>  <distance_score>  (182) 
0.342995

>  <ref_pdb>  (182) 
x0654b

>  <alias>  (182) 
OMGSGWMZPFUHKW-UHFFFAOYSA-N-P58

>  <subsites>  (182) 


>  <smiles>  (182) 
O=C(NNc1ccc(Cl)cc1)C1=CCOCC1

>  <HIPPO Compound ID>  (182) 
225464

>  <ref_mols>  (182) 
x0654c

>  <energy_score>  (182) 
-7.169673

$$$$
ZFHCGPSWNKSPHD-UHFFFAOYSA-N-P59
     RDKit          3D

 15 17  0  0  0  0  0  0  0  0999 V2000
    2.9466  -19.7820   23.2486 Br  0  0  0  0  0  0  0  0  0  0  0  0
    3.7475  -20.9977   22.1019 C   0  0  0  0  0  0  0  0  0  0  0  0
    4.8865  -20.8937   21.3471 C   0  0  0  0  0  0  0  0  0  0  0  0
    5.0677  -22.0539   20.6425 O   0  0  0  0  0  0  0  0  0  0  0  0
    4.0123  -22.8684   20.9573 C   0  0  0  0  0  0  0  0  0  0  0  0
    3.8597  -24.1659   20.2602 C   0  0  0  0  0  0  0  0  0  0  0  0
    3.0097  -23.9404   19.1009 N   0  0  0  0  0  0  0  0  0  0  0  0
    3.8235  -23.5856   17.9117 C   0  0  0  0  0  0  0  0  0  0  0  0
    2.8072  -24.3774   17.0695 C   0  0  0  0  0  0  0  0  0  0  0  0
    2.5165  -25.1316   18.3995 C   0  0  2  0  0  0  0  0  0  0  0  0
    1.0689  -25.4770   18.6412 C   0  0  0  0  0  0  0  0  0  0  0  0
    0.9801  -26.8074   17.9036 C   0  0  0  0  0  0  0  0  0  0  0  0
    2.3108  -27.3639   17.8415 O   0  0  0  0  0  0  0  0  0  0  0  0
    3.1977  -26.4702   18.5273 C   0  0  0  0  0  0  0  0  0  0  0  0
    3.1746  -22.2475   21.8507 C   0  0  0  0  0  0  0  0  0  0  0  0
  1  2  1  0
  2  3  2  0
  3  4  1  0
  4  5  1  0
  5  6  1  0
  6  7  1  0
  7  8  1  0
  8  9  1  0
 10  9  1  6
 10 11  1  0
 11 12  1  0
 12 13  1  0
 13 14  1  0
  5 15  2  0
 15  2  1  0
 10  7  1  0
 14 10  1  0
M  END
>  <placement_batch>  (183) 
CpKRS_FrAncestor_bulkdock_iter2_cluster_best5

>  <name>  (183) 
ZFHCGPSWNKSPHD-UHFFFAOYSA-N-P59

>  <HIPPO Pose ID>  (183) 
61423

>  <inchikey>  (183) 
ZFHCGPSWNKSPHD-UHFFFAOYSA-N

>  <inspiration_score>  (183) 
0.656

>  <tags>  (183) 
CpKRS_FrAncestor_bulkdock_iter2,CpKRS_FrAncestor_bulkdock_iter2_cluster_best5,BulkDock Fragalysis export,fragmenstein_placed,CpKRS_FrAncestor_bulkdock_iter2_exported

>  <distance_score>  (183) 
0.939573

>  <ref_pdb>  (183) 
x0654b

>  <alias>  (183) 
ZFHCGPSWNKSPHD-UHFFFAOYSA-N-P59

>  <subsites>  (183) 


>  <smiles>  (183) 
Brc1coc(CN2CCC23CCOC3)c1

>  <HIPPO Compound ID>  (183) 
453196

>  <ref_mols>  (183) 
x0675a

>  <energy_score>  (183) 
-33.878767

$$$$
NJPNEGKDDHKHJO-UHFFFAOYSA-N-P59
     RDKit          3D

 15 17  0  0  0  0  0  0  0  0999 V2000
    2.9634  -19.8436   23.2173 Br  0  0  0  0  0  0  0  0  0  0  0  0
    3.8789  -20.9597   22.0275 C   0  0  0  0  0  0  0  0  0  0  0  0
    5.0337  -20.6630   21.3498 C   0  0  0  0  0  0  0  0  0  0  0  0
    5.5259  -21.9829   20.3672 S   0  0  0  0  0  0  0  0  0  0  0  0
    4.1526  -22.9081   20.8244 C   0  0  0  0  0  0  0  0  0  0  0  0
    3.8360  -24.2331   20.2088 C   0  0  0  0  0  0  0  0  0  0  0  0
    2.9349  -23.9984   19.0881 N   0  0  0  0  0  0  0  0  0  0  0  0
    3.6938  -23.6563   17.8564 C   0  0  0  0  0  0  0  0  0  0  0  0
    2.6326  -24.4397   17.0676 C   0  0  0  0  0  0  0  0  0  0  0  0
    2.4098  -25.1936   18.4117 C   0  0  2  0  0  0  0  0  0  0  0  0
    0.9785  -25.5517   18.7188 C   0  0  0  0  0  0  0  0  0  0  0  0
    0.8694  -26.8845   17.9854 C   0  0  0  0  0  0  0  0  0  0  0  0
    2.2031  -27.4234   17.8508 O   0  0  0  0  0  0  0  0  0  0  0  0
    3.1074  -26.5272   18.5076 C   0  0  0  0  0  0  0  0  0  0  0  0
    3.3641  -22.2376   21.7335 C   0  0  0  0  0  0  0  0  0  0  0  0
  1  2  1  0
  2  3  2  0
  3  4  1  0
  4  5  1  0
  5  6  1  0
  6  7  1  0
  7  8  1  0
  8  9  1  0
 10  9  1  6
 10 11  1  0
 11 12  1  0
 12 13  1  0
 13 14  1  0
  5 15  2  0
 15  2  1  0
 10  7  1  0
 14 10  1  0
M  END
>  <placement_batch>  (184) 
CpKRS_FrAncestor_bulkdock_iter2_cluster_best5

>  <name>  (184) 
NJPNEGKDDHKHJO-UHFFFAOYSA-N-P59

>  <HIPPO Pose ID>  (184) 
61429

>  <inchikey>  (184) 
NJPNEGKDDHKHJO-UHFFFAOYSA-N

>  <inspiration_score>  (184) 
0.711

>  <tags>  (184) 
CpKRS_FrAncestor_bulkdock_iter2,CpKRS_FrAncestor_bulkdock_iter2_cluster_best5,BulkDock Fragalysis export,fragmenstein_placed,CpKRS_FrAncestor_bulkdock_iter2_exported

>  <distance_score>  (184) 
0.889177

>  <ref_pdb>  (184) 
x0654b

>  <alias>  (184) 
NJPNEGKDDHKHJO-UHFFFAOYSA-N-P59

>  <subsites>  (184) 


>  <smiles>  (184) 
Brc1csc(CN2CCC23CCOC3)c1

>  <HIPPO Compound ID>  (184) 
453199

>  <ref_mols>  (184) 
x0675a

>  <energy_score>  (184) 
-33.215835

$$$$
LGCGVLQTQMFBTQ-UHFFFAOYSA-N-P60
     RDKit          3D

 18 21  0  0  0  0  0  0  0  0999 V2000
   -1.0753  -26.0660   23.6954 C   0  0  0  0  0  0  0  0  0  0  0  0
   -1.2025  -24.7906   24.2512 C   0  0  0  0  0  0  0  0  0  0  0  0
   -2.1745  -24.6082   25.2044 C   0  0  0  0  0  0  0  0  0  0  0  0
   -3.0026  -25.6227   25.6049 C   0  0  0  0  0  0  0  0  0  0  0  0
   -2.9312  -26.8750   25.0560 C   0  0  0  0  0  0  0  0  0  0  0  0
   -1.9512  -27.1084   24.0754 C   0  0  0  0  0  0  0  0  0  0  0  0
   -1.8855  -28.4599   23.3986 C   0  0  0  0  0  0  0  0  0  0  0  0
   -0.8815  -29.3726   23.9702 N   0  0  0  0  0  0  0  0  0  0  0  0
   -1.2868  -29.8383   25.3267 C   0  0  0  0  0  0  0  0  0  0  0  0
   -1.9774  -31.0536   24.6992 C   0  0  0  0  0  0  0  0  0  0  0  0
   -1.0448  -30.7945   23.4821 C   0  0  1  0  0  0  0  0  0  0  0  0
   -1.6556  -30.9901   22.0885 C   0  0  0  0  0  0  0  0  0  0  0  0
   -1.7873  -32.4865   21.7960 C   0  0  0  0  0  0  0  0  0  0  0  0
   -0.4706  -33.2131   22.0380 C   0  0  0  0  0  0  0  0  0  0  0  0
   -0.0168  -32.9717   23.3717 O   0  0  0  0  0  0  0  0  0  0  0  0
    0.2735  -31.5832   23.5720 C   0  0  0  0  0  0  0  0  0  0  0  0
   -3.7432  -24.7723   26.5875 C   0  0  0  0  0  0  0  0  0  0  0  0
   -2.8337  -23.6001   26.0924 C   0  0  0  0  0  0  0  0  0  0  0  0
  1  2  2  0
  2  3  1  0
  3  4  2  0
  4  5  1  0
  5  6  2  0
  6  7  1  0
  7  8  1  0
  8  9  1  0
  9 10  1  0
 11 10  1  1
 11 12  1  0
 12 13  1  0
 13 14  1  0
 14 15  1  0
 15 16  1  0
  4 17  1  0
 17 18  1  0
  6  1  1  0
 11  8  1  0
 18  3  1  0
 16 11  1  0
M  END
>  <placement_batch>  (185) 
CpKRS_FrAncestor_bulkdock_iter2_cluster_best5

>  <name>  (185) 
LGCGVLQTQMFBTQ-UHFFFAOYSA-N-P60

>  <HIPPO Pose ID>  (185) 
61436

>  <inchikey>  (185) 
LGCGVLQTQMFBTQ-UHFFFAOYSA-N

>  <inspiration_score>  (185) 
0.632

>  <tags>  (185) 
CpKRS_FrAncestor_bulkdock_iter2,CpKRS_FrAncestor_bulkdock_iter2_cluster_best5,BulkDock Fragalysis export,fragmenstein_placed,CpKRS_FrAncestor_bulkdock_iter2_exported

>  <distance_score>  (185) 
0.885428

>  <ref_pdb>  (185) 
x0654b

>  <alias>  (185) 
LGCGVLQTQMFBTQ-UHFFFAOYSA-N-P60

>  <subsites>  (185) 


>  <smiles>  (185) 
c1cc2c(cc1CN1CCC13CCCOC3)CC2

>  <HIPPO Compound ID>  (185) 
453202

>  <ref_mols>  (185) 
x0675b

>  <energy_score>  (185) 
-44.126051

$$$$
BRLFPSZTVJPIQS-UHFFFAOYSA-N-P59
     RDKit          3D

 15 17  0  0  0  0  0  0  0  0999 V2000
    2.6931  -22.4846   21.9270 C   0  0  0  0  0  0  0  0  0  0  0  0
    3.3520  -21.2636   22.1774 C   0  0  0  0  0  0  0  0  0  0  0  0
    4.5501  -21.3593   21.5191 C   0  0  0  0  0  0  0  0  0  0  0  0
    5.6170  -20.2773   21.4710 C   0  0  0  0  0  0  0  0  0  0  0  0
    6.8780  -20.5271   20.7065 C   0  0  0  0  0  0  0  0  0  0  0  0
    5.8041  -19.6458   20.1390 C   0  0  0  0  0  0  0  0  0  0  0  0
    4.7022  -22.5748   20.9351 O   0  0  0  0  0  0  0  0  0  0  0  0
    3.5794  -23.2731   21.2275 C   0  0  0  0  0  0  0  0  0  0  0  0
    3.5116  -24.6646   20.7356 C   0  0  0  0  0  0  0  0  0  0  0  0
    2.5769  -24.7572   19.6145 N   0  0  0  0  0  0  0  0  0  0  0  0
    3.1052  -24.1026   18.3975 C   0  0  0  0  0  0  0  0  0  0  0  0
    2.4063  -24.6309   17.1400 C   0  0  0  0  0  0  0  0  0  0  0  0
    2.6504  -26.0318   16.9284 O   0  0  0  0  0  0  0  0  0  0  0  0
    2.8340  -26.7592   18.1516 C   0  0  0  0  0  0  0  0  0  0  0  0
    2.1379  -26.1332   19.3564 C   0  0  0  0  0  0  0  0  0  0  0  0
  1  2  1  0
  2  3  2  0
  3  4  1  0
  4  5  1  0
  5  6  1  0
  3  7  1  0
  7  8  1  0
  8  9  1  0
  9 10  1  0
 10 11  1  0
 11 12  1  0
 12 13  1  0
 13 14  1  0
 14 15  1  0
  8  1  2  0
 15 10  1  0
  6  4  1  0
M  END
>  <placement_batch>  (186) 
CpKRS_FrAncestor_bulkdock_iter2_cluster_best5

>  <name>  (186) 
BRLFPSZTVJPIQS-UHFFFAOYSA-N-P59

>  <HIPPO Pose ID>  (186) 
61463

>  <inchikey>  (186) 
BRLFPSZTVJPIQS-UHFFFAOYSA-N

>  <inspiration_score>  (186) 
0.572

>  <tags>  (186) 
CpKRS_FrAncestor_bulkdock_iter2,CpKRS_FrAncestor_bulkdock_iter2_cluster_best5,BulkDock Fragalysis export,fragmenstein_placed,CpKRS_FrAncestor_bulkdock_iter2_exported

>  <distance_score>  (186) 
0.92554

>  <ref_pdb>  (186) 
x0654b

>  <alias>  (186) 
BRLFPSZTVJPIQS-UHFFFAOYSA-N-P59

>  <subsites>  (186) 


>  <smiles>  (186) 
c1cc(C2CC2)oc1CN1CCOCC1

>  <HIPPO Compound ID>  (186) 
453216

>  <ref_mols>  (186) 
x0675a

>  <energy_score>  (186) 
-32.278352

$$$$
SZYCAPYHOAPTEG-FIBGUPNXSA-N-P10
     RDKit          3D

 19 20  0  0  0  0  0  0  0  0999 V2000
    4.2481   -7.8472   25.3311 H   0  0  0  0  0  0  0  0  0  0  0  0
    5.1794   -7.8570   24.7565 C   0  0  0  0  0  0  0  0  0  0  0  0
    5.9281   -8.4847   25.2474 H   0  0  0  0  0  0  0  0  0  0  0  0
    5.5683   -6.8351   24.7194 H   0  0  0  0  0  0  0  0  0  0  0  0
    4.9353   -8.2829   23.4190 O   0  0  0  0  0  0  0  0  0  0  0  0
    4.8006   -9.6362   23.2578 C   0  0  0  0  0  0  0  0  0  0  0  0
    5.1618  -10.1190   22.0049 C   0  0  0  0  0  0  0  0  0  0  0  0
    5.0838  -11.4829   21.7443 C   0  0  0  0  0  0  0  0  0  0  0  0
    4.6555  -12.3748   22.7212 C   0  0  0  0  0  0  0  0  0  0  0  0
    4.2819  -11.9014   23.9720 C   0  0  0  0  0  0  0  0  0  0  0  0
    3.9139  -12.7883   24.9820 N   0  0  0  0  0  0  0  0  0  0  0  0
    3.8201  -14.3422   24.9744 C   0  0  0  0  0  0  0  0  0  0  0  0
    3.9598  -15.0885   24.1163 O   0  0  0  0  0  0  0  0  0  0  0  0
    3.5414  -14.5843   26.4535 N   0  0  0  0  0  0  0  0  0  0  0  0
    1.9600  -14.6385   26.7507 C   0  0  0  0  0  0  0  0  0  0  0  0
    2.1935  -15.5209   27.9239 C   0  0  0  0  0  0  0  0  0  0  0  0
    1.6025  -15.8304   28.9339 O   0  0  0  0  0  0  0  0  0  0  0  0
    3.4663  -15.9045   27.2590 C   0  0  0  0  0  0  0  0  0  0  0  0
    4.3240  -10.5250   24.2286 C   0  0  0  0  0  0  0  0  0  0  0  0
  1  2  1  0
  2  3  1  0
  2  4  1  0
  2  5  1  0
  5  6  1  0
  6  7  2  0
  7  8  1  0
  8  9  2  0
  9 10  1  0
 10 11  1  0
 11 12  1  0
 12 13  2  0
 12 14  1  0
 14 15  1  0
 15 16  1  0
 16 17  2  0
 16 18  1  0
 10 19  2  0
 19  6  1  0
 18 14  1  0
M  ISO  3   1   2   3   2   4   2
M  END
>  <placement_batch>  (187) 
CpKRS_FrAncestor_bulkdock_iter2_cluster_best5

>  <name>  (187) 
SZYCAPYHOAPTEG-FIBGUPNXSA-N-P10

>  <HIPPO Pose ID>  (187) 
61495

>  <inchikey>  (187) 
SZYCAPYHOAPTEG-UHFFFAOYSA-N

>  <inspiration_score>  (187) 
0.654

>  <tags>  (187) 
CpKRS_FrAncestor_bulkdock_iter2,CpKRS_FrAncestor_bulkdock_iter2_cluster_best5,BulkDock Fragalysis export,fragmenstein_placed,CpKRS_FrAncestor_bulkdock_iter2_exported

>  <distance_score>  (187) 
0.705089

>  <ref_pdb>  (187) 
x0654b

>  <alias>  (187) 
SZYCAPYHOAPTEG-FIBGUPNXSA-N-P10

>  <subsites>  (187) 


>  <smiles>  (187) 
[2H]C([2H])([2H])Oc1cccc(NC(=O)N2CC(=O)C2)c1

>  <HIPPO Compound ID>  (187) 
31524

>  <ref_mols>  (187) 
x0419c

>  <energy_score>  (187) 
-0.319797

$$$$
BMHLZYAJDURMOR-UHFFFAOYSA-N-P8
     RDKit          3D

 20 22  0  0  0  0  0  0  0  0999 V2000
    0.8931    8.0087   48.2363 C   0  0  0  0  0  0  0  0  0  0  0  0
    0.9669    7.6494   46.7762 C   0  0  1  0  0  0  0  0  0  0  0  0
    1.9557    6.4234   46.3988 C   0  0  0  0  0  0  0  0  0  0  0  0
    2.1290    5.2646   47.1711 C   0  0  0  0  0  0  0  0  0  0  0  0
    2.8382    4.1474   46.7092 C   0  0  0  0  0  0  0  0  0  0  0  0
    3.3845    4.1435   45.4310 C   0  0  0  0  0  0  0  0  0  0  0  0
    3.2335    5.2674   44.6342 C   0  0  0  0  0  0  0  0  0  0  0  0
    3.7021    5.2732   43.3269 N   0  0  0  0  0  0  0  0  0  0  0  0
    3.5850    6.3527   42.2205 C   0  0  0  0  0  0  0  0  0  0  0  0
    3.0113    7.3690   42.2133 O   0  0  0  0  0  0  0  0  0  0  0  0
    4.4543    5.9839   41.0598 C   0  0  0  0  0  0  0  0  0  0  0  0
    4.7937    4.7365   40.6933 C   0  0  0  0  0  0  0  0  0  0  0  0
    5.7117    4.4750   39.5412 C   0  0  0  0  0  0  0  0  0  0  0  0
    5.8652    5.6105   38.6948 O   0  0  0  0  0  0  0  0  0  0  0  0
    6.1518    6.7946   39.4250 C   0  0  0  0  0  0  0  0  0  0  0  0
    4.9548    7.1744   40.2784 C   0  0  0  0  0  0  0  0  0  0  0  0
    2.5950    6.3923   45.1449 C   0  0  0  0  0  0  0  0  0  0  0  0
   -0.4146    7.5649   46.0941 C   0  0  0  0  0  0  0  0  0  0  0  0
    0.2300    8.5128   45.0819 C   0  0  0  0  0  0  0  0  0  0  0  0
    1.2058    8.8986   46.0726 O   0  0  0  0  0  0  0  0  0  0  0  0
  2  1  1  1
  2  3  1  0
  3  4  2  0
  4  5  1  0
  5  6  2  0
  6  7  1  0
  7  8  1  0
  8  9  1  0
  9 10  2  0
  9 11  1  0
 11 12  2  0
 12 13  1  0
 13 14  1  0
 14 15  1  0
 15 16  1  0
  7 17  2  0
  2 18  1  0
 18 19  1  0
 19 20  1  0
 20  2  1  0
 17  3  1  0
 16 11  1  0
M  END
>  <placement_batch>  (188) 
CpKRS_FrAncestor_bulkdock_iter2_cluster_best5

>  <name>  (188) 
BMHLZYAJDURMOR-UHFFFAOYSA-N-P8

>  <HIPPO Pose ID>  (188) 
61590

>  <inchikey>  (188) 
BMHLZYAJDURMOR-UHFFFAOYSA-N

>  <inspiration_score>  (188) 
0.819

>  <tags>  (188) 
CpKRS_FrAncestor_bulkdock_iter2,CpKRS_FrAncestor_bulkdock_iter2_cluster_best5,BulkDock Fragalysis export,fragmenstein_placed,CpKRS_FrAncestor_bulkdock_iter2_exported

>  <distance_score>  (188) 
0.452605

>  <ref_pdb>  (188) 
x0654b

>  <alias>  (188) 
BMHLZYAJDURMOR-UHFFFAOYSA-N-P8

>  <subsites>  (188) 


>  <smiles>  (188) 
CC1(c2cccc(NC(=O)C3=CCOCC3)c2)CCO1

>  <HIPPO Compound ID>  (188) 
453240

>  <ref_mols>  (188) 
x0419b

>  <energy_score>  (188) 
-24.447166

$$$$
ZVFXNTRIOJSGIH-UHFFFAOYSA-N-P8
     RDKit          3D

 19 21  0  0  0  0  0  0  0  0999 V2000
    3.8984    3.3858   45.1841 C   0  0  0  0  0  0  0  0  0  0  0  0
    3.1445    4.6568   45.4112 C   0  0  0  0  0  0  0  0  0  0  0  0
    2.6039    4.8814   46.6886 C   0  0  0  0  0  0  0  0  0  0  0  0
    1.9079    6.0501   46.9076 C   0  0  0  0  0  0  0  0  0  0  0  0
    1.6961    6.9731   45.9157 C   0  0  0  0  0  0  0  0  0  0  0  0
    2.2293    6.7917   44.6668 C   0  0  0  0  0  0  0  0  0  0  0  0
    2.9684    5.6390   44.4076 C   0  0  0  0  0  0  0  0  0  0  0  0
    3.5443    5.5256   43.1486 N   0  0  0  0  0  0  0  0  0  0  0  0
    3.3736    6.4024   41.8808 C   0  0  0  0  0  0  0  0  0  0  0  0
    2.6653    7.3076   41.6768 O   0  0  0  0  0  0  0  0  0  0  0  0
    4.3800    6.0028   40.8626 C   0  0  0  0  0  0  0  0  0  0  0  0
    4.7842    4.7455   40.6229 C   0  0  0  0  0  0  0  0  0  0  0  0
    5.7948    4.4403   39.5645 C   0  0  0  0  0  0  0  0  0  0  0  0
    5.9986    5.5335   38.6716 O   0  0  0  0  0  0  0  0  0  0  0  0
    6.1955    6.7635   39.3534 C   0  0  0  0  0  0  0  0  0  0  0  0
    4.9161    7.1605   40.0633 C   0  0  0  0  0  0  0  0  0  0  0  0
    0.8272    8.0641   46.3934 C   0  0  0  0  0  0  0  0  0  0  0  0
    0.9053    7.7817   47.8828 C   0  0  0  0  0  0  0  0  0  0  0  0
    1.3520    6.4227   48.0913 O   0  0  0  0  0  0  0  0  0  0  0  0
  1  2  1  0
  2  3  2  0
  3  4  1  0
  4  5  2  0
  5  6  1  0
  6  7  2  0
  7  8  1  0
  8  9  1  0
  9 10  2  0
  9 11  1  0
 11 12  2  0
 12 13  1  0
 13 14  1  0
 14 15  1  0
 15 16  1  0
  5 17  1  0
 17 18  1  0
 18 19  1  0
  7  2  1  0
 16 11  1  0
 19  4  1  0
M  END
>  <placement_batch>  (189) 
CpKRS_FrAncestor_bulkdock_iter2_cluster_best5

>  <name>  (189) 
ZVFXNTRIOJSGIH-UHFFFAOYSA-N-P8

>  <HIPPO Pose ID>  (189) 
61626

>  <inchikey>  (189) 
ZVFXNTRIOJSGIH-UHFFFAOYSA-N

>  <inspiration_score>  (189) 
0.674

>  <tags>  (189) 
CpKRS_FrAncestor_bulkdock_iter2,CpKRS_FrAncestor_bulkdock_iter2_cluster_best5,BulkDock Fragalysis export,fragmenstein_placed,CpKRS_FrAncestor_bulkdock_iter2_exported

>  <distance_score>  (189) 
0.788452

>  <ref_pdb>  (189) 
x0654b

>  <alias>  (189) 
ZVFXNTRIOJSGIH-UHFFFAOYSA-N-P8

>  <subsites>  (189) 


>  <smiles>  (189) 
Cc1cc2c(cc1NC(=O)C1=CCOCC1)CCO2

>  <HIPPO Compound ID>  (189) 
53864

>  <ref_mols>  (189) 
x0419b

>  <energy_score>  (189) 
-34.005831

$$$$
DBWNSIVRZMDXPD-UHFFFAOYSA-N-P46
     RDKit          3D

 14 15  0  0  0  0  0  0  0  0999 V2000
    4.7909   -8.8175   21.2257 C   0  0  0  0  0  0  0  0  0  0  0  0
    4.4393   -9.3485   22.5828 C   0  0  2  0  0  0  0  0  0  0  0  0
    5.1219   -8.6099   23.7529 C   0  0  0  0  0  0  0  0  0  0  0  0
    5.3948   -9.9895   24.3567 C   0  0  0  0  0  0  0  0  0  0  0  0
    5.2781  -10.5925   22.9402 C   0  0  1  0  0  0  0  0  0  0  0  0
    4.6847  -11.9525   22.6343 C   0  0  0  0  0  0  0  0  0  0  0  0
    3.9836  -12.4526   23.7749 N   0  0  0  0  0  0  0  0  0  0  0  0
    4.4644  -13.3526   24.9304 C   0  0  0  0  0  0  0  0  0  0  0  0
    5.5268  -13.7645   25.1746 O   0  0  0  0  0  0  0  0  0  0  0  0
    3.3453  -13.6732   25.8184 C   0  0  0  0  0  0  0  0  0  0  0  0
    3.3130  -14.6342   26.8144 C   0  0  0  0  0  0  0  0  0  0  0  0
    2.1625  -14.6761   27.5865 N   0  0  0  0  0  0  0  0  0  0  0  0
    1.3427  -13.7457   27.1606 C   0  0  0  0  0  0  0  0  0  0  0  0
    1.8378  -12.8498   25.7921 S   0  0  0  0  0  0  0  0  0  0  0  0
  2  1  1  6
  2  3  1  0
  3  4  1  0
  4  5  1  0
  5  6  1  1
  6  7  1  0
  7  8  1  0
  8  9  2  0
  8 10  1  0
 10 11  2  0
 11 12  1  0
 12 13  2  0
 13 14  1  0
  5  2  1  0
 14 10  1  0
M  END
>  <placement_batch>  (190) 
CpKRS_FrAncestor_bulkdock_iter2_cluster_best5

>  <name>  (190) 
DBWNSIVRZMDXPD-UHFFFAOYSA-N-P46

>  <HIPPO Pose ID>  (190) 
61677

>  <inchikey>  (190) 
DBWNSIVRZMDXPD-UHFFFAOYSA-N

>  <inspiration_score>  (190) 
0.885

>  <tags>  (190) 
CpKRS_FrAncestor_bulkdock_iter2,CpKRS_FrAncestor_bulkdock_iter2_cluster_best5,BulkDock Fragalysis export,fragmenstein_placed,CpKRS_FrAncestor_bulkdock_iter2_exported

>  <distance_score>  (190) 
0.627712

>  <ref_pdb>  (190) 
x0654b

>  <alias>  (190) 
DBWNSIVRZMDXPD-UHFFFAOYSA-N-P46

>  <subsites>  (190) 


>  <smiles>  (190) 
CC1CCC1CNC(=O)c1cncs1

>  <HIPPO Compound ID>  (190) 
30832

>  <ref_mols>  (190) 
x0502c

>  <energy_score>  (190) 
-54.337623

$$$$
XPYXASAGAWYQMY-UHFFFAOYSA-N-P20
     RDKit          3D

 13 14  0  0  0  0  0  0  0  0999 V2000
    2.6533    3.7711   46.9514 C   0  0  0  0  0  0  0  0  0  0  0  0
    3.0629    4.9763   46.1912 C   0  0  2  0  0  0  0  0  0  0  0  0
    2.2371    6.2258   46.2301 C   0  0  0  0  0  0  0  0  0  0  0  0
    2.2885    5.4072   44.9741 C   0  0  1  0  0  0  0  0  0  0  0  0
    3.0223    5.7819   43.8315 N   0  0  0  0  0  0  0  0  0  0  0  0
    3.7953    4.9184   42.8059 C   0  0  0  0  0  0  0  0  0  0  0  0
    4.0082    3.7705   42.7916 O   0  0  0  0  0  0  0  0  0  0  0  0
    4.3750    5.8206   41.7947 C   0  0  0  0  0  0  0  0  0  0  0  0
    4.2596    7.1367   41.8631 N   0  0  0  0  0  0  0  0  0  0  0  0
    4.9550    7.7091   40.8102 C   0  0  0  0  0  0  0  0  0  0  0  0
    4.9789    9.4085   40.6257 Cl  0  0  0  0  0  0  0  0  0  0  0  0
    5.6257    6.8253   39.9913 C   0  0  0  0  0  0  0  0  0  0  0  0
    5.3775    5.2194   40.5343 S   0  0  0  0  0  0  0  0  0  0  0  0
  2  1  1  1
  2  3  1  0
  3  4  1  0
  4  5  1  6
  5  6  1  0
  6  7  2  0
  6  8  1  0
  8  9  2  0
  9 10  1  0
 10 11  1  0
 10 12  2  0
 12 13  1  0
  4  2  1  0
 13  8  1  0
M  END
>  <placement_batch>  (191) 
CpKRS_FrAncestor_bulkdock_iter2_cluster_best5

>  <name>  (191) 
XPYXASAGAWYQMY-UHFFFAOYSA-N-P20

>  <HIPPO Pose ID>  (191) 
61689

>  <inchikey>  (191) 
XPYXASAGAWYQMY-UHFFFAOYSA-N

>  <inspiration_score>  (191) 
0.842

>  <tags>  (191) 
CpKRS_FrAncestor_bulkdock_iter2,CpKRS_FrAncestor_bulkdock_iter2_cluster_best5,BulkDock Fragalysis export,fragmenstein_placed,CpKRS_FrAncestor_bulkdock_iter2_exported

>  <distance_score>  (191) 
0.909134

>  <ref_pdb>  (191) 
x0654b

>  <alias>  (191) 
XPYXASAGAWYQMY-UHFFFAOYSA-N-P20

>  <subsites>  (191) 


>  <smiles>  (191) 
CC1CC1NC(=O)c1nc(Cl)cs1

>  <HIPPO Compound ID>  (191) 
30859

>  <ref_mols>  (191) 
x0456a

>  <energy_score>  (191) 
-51.531695

$$$$
IIDXJLFULHCFLB-UHFFFAOYSA-N-P63
     RDKit          3D

 17 18  0  0  0  0  0  0  0  0999 V2000
    3.0980  -16.9380   27.6858 C   0  0  0  0  0  0  0  0  0  0  0  0
    2.7186  -15.6870   26.9654 C   0  0  0  0  0  0  0  0  0  0  0  0
    1.4427  -15.1520   27.0917 C   0  0  0  0  0  0  0  0  0  0  0  0
    1.1191  -13.9663   26.4408 C   0  0  0  0  0  0  0  0  0  0  0  0
    2.0604  -13.3038   25.6373 C   0  0  0  0  0  0  0  0  0  0  0  0
    1.4430  -11.6574   24.9156 Br  0  0  0  0  0  0  0  0  0  0  0  0
    3.3442  -13.8453   25.4633 C   0  0  0  0  0  0  0  0  0  0  0  0
    4.4705  -13.2514   24.6532 C   0  0  0  0  0  0  0  0  0  0  0  0
    5.5532  -13.4078   25.0496 O   0  0  0  0  0  0  0  0  0  0  0  0
    3.9648  -12.5065   23.4145 N   0  0  0  0  0  0  0  0  0  0  0  0
    4.6702  -11.7164   22.4514 C   0  0  0  0  0  0  0  0  0  0  0  0
    4.8958  -10.3447   22.9821 C   0  0  0  0  0  0  0  0  0  0  0  0
    5.7930   -9.3483   22.6788 C   0  0  0  0  0  0  0  0  0  0  0  0
    5.5164   -8.3315   23.6081 C   0  0  0  0  0  0  0  0  0  0  0  0
    4.4562   -8.6234   24.3641 N   0  0  0  0  0  0  0  0  0  0  0  0
    4.0785   -9.8988   23.9802 O   0  0  0  0  0  0  0  0  0  0  0  0
    3.6596  -15.0319   26.1556 C   0  0  0  0  0  0  0  0  0  0  0  0
  1  2  1  0
  2  3  2  0
  3  4  1  0
  4  5  2  0
  5  6  1  0
  5  7  1  0
  7  8  1  0
  8  9  2  0
  8 10  1  0
 10 11  1  0
 11 12  1  0
 12 13  2  0
 13 14  1  0
 14 15  2  0
 15 16  1  0
  7 17  2  0
 17  2  1  0
 16 12  1  0
M  END
>  <placement_batch>  (192) 
CpKRS_FrAncestor_bulkdock_iter2_cluster_best5

>  <name>  (192) 
IIDXJLFULHCFLB-UHFFFAOYSA-N-P63

>  <HIPPO Pose ID>  (192) 
61724

>  <inchikey>  (192) 
IIDXJLFULHCFLB-UHFFFAOYSA-N

>  <inspiration_score>  (192) 
0.742

>  <tags>  (192) 
CpKRS_FrAncestor_bulkdock_iter2,CpKRS_FrAncestor_bulkdock_iter2_cluster_best5,BulkDock Fragalysis export,fragmenstein_placed,CpKRS_FrAncestor_bulkdock_iter2_exported

>  <distance_score>  (192) 
0.699515

>  <ref_pdb>  (192) 
x0654b

>  <alias>  (192) 
IIDXJLFULHCFLB-UHFFFAOYSA-N-P63

>  <subsites>  (192) 


>  <smiles>  (192) 
Cc1ccc(Br)c(C(=O)NCc2ccno2)c1

>  <HIPPO Compound ID>  (192) 
236420

>  <ref_mols>  (192) 
x0787a

>  <energy_score>  (192) 
-9.8843

$$$$
KGRVHUPWRMBARZ-UHFFFAOYSA-N-P15
     RDKit          3D

 21 23  0  0  0  0  0  0  0  0999 V2000
    2.1271  -27.6552   21.4510 C   0  0  0  0  0  0  0  0  0  0  0  0
    2.1397  -26.3230   20.7029 C   0  0  0  0  0  0  0  0  0  0  0  0
    0.9510  -25.4773   21.1806 C   0  0  0  0  0  0  0  0  0  0  0  0
    3.4782  -25.5945   20.8864 C   0  0  0  0  0  0  0  0  0  0  0  0
    3.6444  -25.0512   19.5205 C   0  0  0  0  0  0  0  0  0  0  0  0
    4.5081  -24.0591   19.0981 C   0  0  0  0  0  0  0  0  0  0  0  0
    4.4952  -23.7184   17.7560 C   0  0  0  0  0  0  0  0  0  0  0  0
    3.6168  -24.3631   16.8781 C   0  0  0  0  0  0  0  0  0  0  0  0
    2.7021  -25.3378   17.3014 C   0  0  0  0  0  0  0  0  0  0  0  0
    1.7135  -25.9471   16.3430 C   0  0  0  0  0  0  0  0  0  0  0  0
    1.5186  -25.1379   15.1533 N   0  0  0  0  0  0  0  0  0  0  0  0
    1.7839  -25.4599   13.6665 C   0  0  0  0  0  0  0  0  0  0  0  0
    2.1279  -26.4520   13.1574 O   0  0  0  0  0  0  0  0  0  0  0  0
    1.5331  -24.2843   12.7656 C   0  0  0  0  0  0  0  0  0  0  0  0
    0.5608  -23.3116   12.9969 C   0  0  0  0  0  0  0  0  0  0  0  0
    0.4014  -22.2661   12.0841 C   0  0  0  0  0  0  0  0  0  0  0  0
    1.2164  -22.2205   10.9643 C   0  0  0  0  0  0  0  0  0  0  0  0
    2.1688  -23.1421   10.6938 N   0  0  0  0  0  0  0  0  0  0  0  0
    2.2802  -24.1645   11.5917 C   0  0  0  0  0  0  0  0  0  0  0  0
    2.7610  -25.6761   18.6443 C   0  0  0  0  0  0  0  0  0  0  0  0
    1.9582  -26.5956   19.2748 O   0  0  0  0  0  0  0  0  0  0  0  0
  1  2  1  0
  2  3  1  0
  2  4  1  0
  4  5  1  0
  5  6  2  0
  6  7  1  0
  7  8  2  0
  8  9  1  0
  9 10  1  0
 10 11  1  0
 11 12  1  0
 12 13  2  0
 12 14  1  0
 14 15  2  0
 15 16  1  0
 16 17  2  0
 17 18  1  0
 18 19  2  0
  9 20  2  0
 20 21  1  0
 21  2  1  0
 20  5  1  0
 19 14  1  0
M  END
>  <placement_batch>  (193) 
CpKRS_FrAncestor_bulkdock_iter2_cluster_best5

>  <name>  (193) 
KGRVHUPWRMBARZ-UHFFFAOYSA-N-P15

>  <HIPPO Pose ID>  (193) 
61741

>  <inchikey>  (193) 
KGRVHUPWRMBARZ-UHFFFAOYSA-N

>  <inspiration_score>  (193) 
0.756

>  <tags>  (193) 
CpKRS_FrAncestor_bulkdock_iter2,CpKRS_FrAncestor_bulkdock_iter2_cluster_best5,BulkDock Fragalysis export,fragmenstein_placed,CpKRS_FrAncestor_bulkdock_iter2_exported

>  <distance_score>  (193) 
0.855581

>  <ref_pdb>  (193) 
x0654b

>  <alias>  (193) 
KGRVHUPWRMBARZ-UHFFFAOYSA-N-P15

>  <subsites>  (193) 


>  <smiles>  (193) 
CC1(C)Cc2cccc(CNC(=O)c3cccnc3)c2O1

>  <HIPPO Compound ID>  (193) 
86546

>  <ref_mols>  (193) 
x0426b

>  <energy_score>  (193) 
-13.635749

$$$$
KJASAFQGECADBU-UHFFFAOYSA-N-P44
     RDKit          3D

 15 16  0  0  0  0  0  0  0  0999 V2000
  -14.5883  -17.1877   44.9267 C   0  0  0  0  0  0  0  0  0  0  0  0
  -13.4889  -16.5940   44.0508 C   0  0  0  0  0  0  0  0  0  0  0  0
  -14.0905  -15.8199   42.8765 C   0  0  0  0  0  0  0  0  0  0  0  0
  -12.4164  -17.6293   43.6288 C   0  0  0  0  0  0  0  0  0  0  0  0
  -11.3392  -16.5623   43.8671 C   0  0  0  0  0  0  0  0  0  0  0  0
  -12.3383  -15.7809   44.7586 C   0  0  2  0  0  0  0  0  0  0  0  0
  -12.1668  -15.9520   46.2650 C   0  0  0  0  0  0  0  0  0  0  0  0
  -11.1829  -15.0038   46.7211 N   0  0  0  0  0  0  0  0  0  0  0  0
  -11.2420  -13.4638   46.8138 C   0  0  0  0  0  0  0  0  0  0  0  0
  -12.1229  -12.7279   46.6081 O   0  0  0  0  0  0  0  0  0  0  0  0
   -9.9815  -12.9463   47.3361 C   0  0  0  0  0  0  0  0  0  0  0  0
   -9.1750  -13.4125   48.3571 C   0  0  0  0  0  0  0  0  0  0  0  0
   -8.0805  -12.6259   48.6731 N   0  0  0  0  0  0  0  0  0  0  0  0
   -8.0556  -11.5878   47.8682 C   0  0  0  0  0  0  0  0  0  0  0  0
   -9.3308  -11.4749   46.7301 S   0  0  0  0  0  0  0  0  0  0  0  0
  1  2  1  0
  2  3  1  0
  2  4  1  0
  4  5  1  0
  5  6  1  0
  6  7  1  1
  7  8  1  0
  8  9  1  0
  9 10  2  0
  9 11  1  0
 11 12  2  0
 12 13  1  0
 13 14  2  0
 14 15  1  0
  6  2  1  0
 15 11  1  0
M  END
>  <placement_batch>  (194) 
CpKRS_FrAncestor_bulkdock_iter2_cluster_best5

>  <name>  (194) 
KJASAFQGECADBU-UHFFFAOYSA-N-P44

>  <HIPPO Pose ID>  (194) 
61753

>  <inchikey>  (194) 
KJASAFQGECADBU-UHFFFAOYSA-N

>  <inspiration_score>  (194) 
0.856

>  <tags>  (194) 
CpKRS_FrAncestor_bulkdock_iter2,CpKRS_FrAncestor_bulkdock_iter2_cluster_best5,BulkDock Fragalysis export,fragmenstein_placed,CpKRS_FrAncestor_bulkdock_iter2_exported

>  <distance_score>  (194) 
0.547798

>  <ref_pdb>  (194) 
x0654b

>  <alias>  (194) 
KJASAFQGECADBU-UHFFFAOYSA-N-P44

>  <subsites>  (194) 


>  <smiles>  (194) 
CC1(C)CCC1CNC(=O)c1cncs1

>  <HIPPO Compound ID>  (194) 
105433

>  <ref_mols>  (194) 
x0502b

>  <energy_score>  (194) 
-63.925732

$$$$
NEYXFXXFZIDTSS-UHFFFAOYSA-N-P10
     RDKit          3D

 20 22  0  0  0  0  0  0  0  0999 V2000
    2.8107   -8.5754   24.9295 C   0  0  0  0  0  0  0  0  0  0  0  0
    4.3348   -8.4935   25.0881 C   0  0  0  0  0  0  0  0  0  0  0  0
    4.7342   -7.7732   26.3835 C   0  0  0  0  0  0  0  0  0  0  0  0
    5.0223   -7.7486   23.9692 C   0  0  0  0  0  0  0  0  0  0  0  0
    5.4210   -8.3680   22.8602 C   0  0  0  0  0  0  0  0  0  0  0  0
    5.1737   -9.7957   22.7944 C   0  0  0  0  0  0  0  0  0  0  0  0
    5.3040  -10.4426   21.5825 C   0  0  0  0  0  0  0  0  0  0  0  0
    5.1258  -11.8125   21.5344 C   0  0  0  0  0  0  0  0  0  0  0  0
    4.7977  -12.5486   22.6600 C   0  0  0  0  0  0  0  0  0  0  0  0
    4.6487  -11.9174   23.8852 C   0  0  0  0  0  0  0  0  0  0  0  0
    4.3335  -12.7071   24.9930 N   0  0  0  0  0  0  0  0  0  0  0  0
    4.0741  -14.2444   25.0985 C   0  0  0  0  0  0  0  0  0  0  0  0
    4.1606  -15.0665   24.3040 O   0  0  0  0  0  0  0  0  0  0  0  0
    3.7636  -14.3443   26.5882 N   0  0  0  0  0  0  0  0  0  0  0  0
    3.5751  -15.5860   27.4946 C   0  0  0  0  0  0  0  0  0  0  0  0
    2.2396  -15.2061   27.9888 C   0  0  0  0  0  0  0  0  0  0  0  0
    1.5125  -15.5791   28.8835 O   0  0  0  0  0  0  0  0  0  0  0  0
    2.1736  -14.2475   26.8654 C   0  0  0  0  0  0  0  0  0  0  0  0
    4.8412  -10.5265   23.9492 C   0  0  0  0  0  0  0  0  0  0  0  0
    4.7700   -9.8734   25.1555 O   0  0  0  0  0  0  0  0  0  0  0  0
  1  2  1  0
  2  3  1  0
  2  4  1  0
  4  5  2  0
  5  6  1  0
  6  7  2  0
  7  8  1  0
  8  9  2  0
  9 10  1  0
 10 11  1  0
 11 12  1  0
 12 13  2  0
 12 14  1  0
 14 15  1  0
 15 16  1  0
 16 17  2  0
 16 18  1  0
 10 19  2  0
 19 20  1  0
 20  2  1  0
 19  6  1  0
 18 14  1  0
M  END
>  <placement_batch>  (195) 
CpKRS_FrAncestor_bulkdock_iter2_cluster_best5

>  <name>  (195) 
NEYXFXXFZIDTSS-UHFFFAOYSA-N-P10

>  <HIPPO Pose ID>  (195) 
61830

>  <inchikey>  (195) 
NEYXFXXFZIDTSS-UHFFFAOYSA-N

>  <inspiration_score>  (195) 
0.639

>  <tags>  (195) 
CpKRS_FrAncestor_bulkdock_iter2,CpKRS_FrAncestor_bulkdock_iter2_cluster_best5,BulkDock Fragalysis export,fragmenstein_placed,CpKRS_FrAncestor_bulkdock_iter2_exported

>  <distance_score>  (195) 
0.659282

>  <ref_pdb>  (195) 
x0654b

>  <alias>  (195) 
NEYXFXXFZIDTSS-UHFFFAOYSA-N-P10

>  <subsites>  (195) 


>  <smiles>  (195) 
CC1(C)C=Cc2cccc(NC(=O)N3CC(=O)C3)c2O1

>  <HIPPO Compound ID>  (195) 
453276

>  <ref_mols>  (195) 
x0419c

>  <energy_score>  (195) 
-3.042527

$$$$
XKCQSLHQQBUMJQ-BQBZGAKWSA-N-P14
     RDKit          3D

 15 16  0  0  0  0  0  0  0  0999 V2000
    6.1126   -8.3568   24.1537 C   0  0  0  0  0  0  0  0  0  0  0  0
    4.7210   -8.4175   23.5665 C   0  0  0  0  0  0  0  0  0  0  0  0
    4.3689   -9.7294   22.8847 C   0  0  1  0  0  0  0  0  0  0  0  0
    5.0680   -9.9717   21.5159 C   0  0  0  0  0  0  0  0  0  0  0  0
    4.9576  -11.4748   21.8280 C   0  0  0  0  0  0  0  0  0  0  0  0
    4.9791  -11.0898   23.3197 C   0  0  2  0  0  0  0  0  0  0  0  0
    4.1807  -11.9721   24.1412 N   0  0  0  0  0  0  0  0  0  0  0  0
    4.5867  -13.1974   24.9791 C   0  0  0  0  0  0  0  0  0  0  0  0
    5.6147  -13.7363   25.0797 O   0  0  0  0  0  0  0  0  0  0  0  0
    3.4314  -13.6158   25.7887 C   0  0  0  0  0  0  0  0  0  0  0  0
    3.5039  -14.6012   26.7631 C   0  0  0  0  0  0  0  0  0  0  0  0
    1.9807  -14.7989   27.5151 S   0  0  0  0  0  0  0  0  0  0  0  0
    1.3537  -13.6209   26.4704 C   0  0  0  0  0  0  0  0  0  0  0  0
   -0.3276  -13.2813   26.4766 Cl  0  0  0  0  0  0  0  0  0  0  0  0
    2.1728  -13.0118   25.6537 N   0  0  0  0  0  0  0  0  0  0  0  0
  1  2  1  0
  3  2  1  1
  3  4  1  0
  4  5  1  0
  5  6  1  0
  6  7  1  1
  7  8  1  0
  8  9  2  0
  8 10  1  0
 10 11  2  0
 11 12  1  0
 12 13  1  0
 13 14  1  0
 13 15  2  0
  6  3  1  0
 15 10  1  0
M  END
>  <placement_batch>  (196) 
CpKRS_FrAncestor_bulkdock_iter2_cluster_best5

>  <name>  (196) 
XKCQSLHQQBUMJQ-BQBZGAKWSA-N-P14

>  <HIPPO Pose ID>  (196) 
61851

>  <inchikey>  (196) 
XKCQSLHQQBUMJQ-UHFFFAOYSA-N

>  <inspiration_score>  (196) 
0.784

>  <tags>  (196) 
CpKRS_FrAncestor_bulkdock_iter2,CpKRS_FrAncestor_bulkdock_iter2_cluster_best5,BulkDock Fragalysis export,fragmenstein_placed,CpKRS_FrAncestor_bulkdock_iter2_exported

>  <distance_score>  (196) 
0.592276

>  <ref_pdb>  (196) 
x0421a

>  <alias>  (196) 
XKCQSLHQQBUMJQ-BQBZGAKWSA-N-P14

>  <subsites>  (196) 


>  <smiles>  (196) 
CC[C@H]1CC[C@@H]1NC(=O)c1csc(Cl)n1

>  <HIPPO Compound ID>  (196) 
29401

>  <ref_mols>  (196) 
x0421d

>  <energy_score>  (196) 
-69.633253

$$$$
DIWJJDFXZMCJQK-IUCAKERBSA-N-P13
     RDKit          3D

 15 16  0  0  0  0  0  0  0  0999 V2000
    5.6781   -7.2553   24.2333 C   0  0  0  0  0  0  0  0  0  0  0  0
    5.9649   -8.7408   24.1996 C   0  0  0  0  0  0  0  0  0  0  0  0
    4.8585   -9.5042   23.4933 C   0  0  1  0  0  0  0  0  0  0  0  0
    4.9120   -9.4187   21.9435 C   0  0  0  0  0  0  0  0  0  0  0  0
    4.5514  -10.9128   21.9154 C   0  0  0  0  0  0  0  0  0  0  0  0
    5.1228  -11.0227   23.3323 C   0  0  2  0  0  0  0  0  0  0  0  0
    4.3778  -11.9194   24.1926 N   0  0  0  0  0  0  0  0  0  0  0  0
    4.8027  -13.2313   24.8775 C   0  0  0  0  0  0  0  0  0  0  0  0
    5.8407  -13.7586   24.9210 O   0  0  0  0  0  0  0  0  0  0  0  0
    3.6346  -13.7908   25.5776 C   0  0  0  0  0  0  0  0  0  0  0  0
    3.7010  -14.8840   26.4219 C   0  0  0  0  0  0  0  0  0  0  0  0
    2.1655  -15.2062   27.0921 S   0  0  0  0  0  0  0  0  0  0  0  0
    1.5025  -13.9158   26.1759 C   0  0  0  0  0  0  0  0  0  0  0  0
    0.0460  -13.6351   26.2460 C   0  0  0  0  0  0  0  0  0  0  0  0
    2.3557  -13.2320   25.4456 N   0  0  0  0  0  0  0  0  0  0  0  0
  1  2  1  0
  3  2  1  1
  3  4  1  0
  4  5  1  0
  5  6  1  0
  6  7  1  1
  7  8  1  0
  8  9  2  0
  8 10  1  0
 10 11  2  0
 11 12  1  0
 12 13  1  0
 13 14  1  0
 13 15  2  0
  6  3  1  0
 15 10  1  0
M  END
>  <placement_batch>  (197) 
CpKRS_FrAncestor_bulkdock_iter2_cluster_best5

>  <name>  (197) 
DIWJJDFXZMCJQK-IUCAKERBSA-N-P13

>  <HIPPO Pose ID>  (197) 
61854

>  <inchikey>  (197) 
DIWJJDFXZMCJQK-UHFFFAOYSA-N

>  <inspiration_score>  (197) 
0.794

>  <tags>  (197) 
CpKRS_FrAncestor_bulkdock_iter2,CpKRS_FrAncestor_bulkdock_iter2_cluster_best5,BulkDock Fragalysis export,fragmenstein_placed,CpKRS_FrAncestor_bulkdock_iter2_exported

>  <distance_score>  (197) 
0.535381

>  <ref_pdb>  (197) 
x0421a

>  <alias>  (197) 
DIWJJDFXZMCJQK-IUCAKERBSA-N-P13

>  <subsites>  (197) 


>  <smiles>  (197) 
CC[C@H]1CC[C@@H]1NC(=O)c1csc(C)n1

>  <HIPPO Compound ID>  (197) 
29402

>  <ref_mols>  (197) 
x0421c

>  <energy_score>  (197) 
-63.364162

$$$$
ASRGDGDJLJHTCU-IUCAKERBSA-N-P14
     RDKit          3D

 15 16  0  0  0  0  0  0  0  0999 V2000
    4.9245   -8.1192   24.8662 C   0  0  0  0  0  0  0  0  0  0  0  0
    5.2632   -8.4030   23.4163 C   0  0  0  0  0  0  0  0  0  0  0  0
    4.5208   -9.6330   22.9130 C   0  0  1  0  0  0  0  0  0  0  0  0
    5.0025   -9.9984   21.4829 C   0  0  0  0  0  0  0  0  0  0  0  0
    4.8373  -11.4726   21.8725 C   0  0  0  0  0  0  0  0  0  0  0  0
    5.0147  -11.0408   23.3399 C   0  0  2  0  0  0  0  0  0  0  0  0
    4.2093  -11.8276   24.2541 N   0  0  0  0  0  0  0  0  0  0  0  0
    4.5271  -13.1482   24.9881 C   0  0  0  0  0  0  0  0  0  0  0  0
    5.5135  -13.7697   25.0330 O   0  0  0  0  0  0  0  0  0  0  0  0
    3.3432  -13.5310   25.7967 C   0  0  0  0  0  0  0  0  0  0  0  0
    2.1355  -12.8115   25.6804 N   0  0  0  0  0  0  0  0  0  0  0  0
    1.2452  -13.3301   26.4935 C   0  0  0  0  0  0  0  0  0  0  0  0
    1.7700  -14.6128   27.4883 S   0  0  0  0  0  0  0  0  0  0  0  0
    3.3172  -14.5479   26.7487 C   0  0  0  0  0  0  0  0  0  0  0  0
    4.3686  -15.5094   27.1882 C   0  0  0  0  0  0  0  0  0  0  0  0
  1  2  1  0
  3  2  1  1
  3  4  1  0
  4  5  1  0
  5  6  1  0
  6  7  1  1
  7  8  1  0
  8  9  2  0
  8 10  1  0
 10 11  1  0
 11 12  2  0
 12 13  1  0
 13 14  1  0
 14 15  1  0
  6  3  1  0
 14 10  2  0
M  END
>  <placement_batch>  (198) 
CpKRS_FrAncestor_bulkdock_iter2_cluster_best5

>  <name>  (198) 
ASRGDGDJLJHTCU-IUCAKERBSA-N-P14

>  <HIPPO Pose ID>  (198) 
61887

>  <inchikey>  (198) 
ASRGDGDJLJHTCU-UHFFFAOYSA-N

>  <inspiration_score>  (198) 
0.8

>  <tags>  (198) 
CpKRS_FrAncestor_bulkdock_iter2,CpKRS_FrAncestor_bulkdock_iter2_cluster_best5,BulkDock Fragalysis export,fragmenstein_placed,CpKRS_FrAncestor_bulkdock_iter2_exported

>  <distance_score>  (198) 
0.536622

>  <ref_pdb>  (198) 
x0421a

>  <alias>  (198) 
ASRGDGDJLJHTCU-IUCAKERBSA-N-P14

>  <subsites>  (198) 


>  <smiles>  (198) 
CC[C@H]1CC[C@@H]1NC(=O)c1ncsc1C

>  <HIPPO Compound ID>  (198) 
29411

>  <ref_mols>  (198) 
x0421d

>  <energy_score>  (198) 
-49.217473

$$$$
ZWRVROVUJFNFNC-XYPYZODXSA-N-P45
     RDKit          3D

 17 18  0  0  0  0  0  0  0  0999 V2000
    6.2321   -6.2499   25.1018 C   0  0  0  0  0  0  0  0  0  0  0  0
    6.0454   -7.1897   24.3822 C   0  0  0  0  0  0  0  0  0  0  0  0
    5.8715   -8.4631   23.6738 C   0  0  1  0  0  0  0  0  0  0  0  0
    5.2334   -9.4800   24.6255 C   0  0  0  0  0  0  0  0  0  0  0  0
    3.8228   -9.8562   24.2175 C   0  0  0  0  0  0  0  0  0  0  0  0
    3.8266  -10.4904   22.8220 C   0  0  2  0  0  0  0  0  0  0  0  0
    4.3022  -11.9556   22.8140 C   0  0  0  0  0  0  0  0  0  0  0  0
    3.7946  -12.7477   23.8975 N   0  0  0  0  0  0  0  0  0  0  0  0
    4.5343  -13.4989   25.0193 C   0  0  0  0  0  0  0  0  0  0  0  0
    5.6749  -13.6572   25.1971 O   0  0  0  0  0  0  0  0  0  0  0  0
    3.5882  -14.0444   25.9922 C   0  0  0  0  0  0  0  0  0  0  0  0
    3.8537  -15.0088   26.9487 C   0  0  0  0  0  0  0  0  0  0  0  0
    2.8500  -15.2565   27.8657 N   0  0  0  0  0  0  0  0  0  0  0  0
    1.8301  -14.4835   27.5812 C   0  0  0  0  0  0  0  0  0  0  0  0
    1.9749  -13.4900   26.1918 S   0  0  0  0  0  0  0  0  0  0  0  0
    4.6772   -9.6624   21.8242 C   0  0  0  0  0  0  0  0  0  0  0  0
    5.0892   -8.2987   22.3720 C   0  0  0  0  0  0  0  0  0  0  0  0
  1  2  3  0
  3  2  1  1
  3  4  1  0
  4  5  1  0
  5  6  1  0
  6  7  1  1
  7  8  1  0
  8  9  1  0
  9 10  2  0
  9 11  1  0
 11 12  2  0
 12 13  1  0
 13 14  2  0
 14 15  1  0
  6 16  1  0
 16 17  1  0
 17  3  1  0
 15 11  1  0
M  END
>  <placement_batch>  (199) 
CpKRS_FrAncestor_bulkdock_iter2_cluster_best5

>  <name>  (199) 
ZWRVROVUJFNFNC-XYPYZODXSA-N-P45

>  <HIPPO Pose ID>  (199) 
61924

>  <inchikey>  (199) 
ZWRVROVUJFNFNC-UHFFFAOYSA-N

>  <inspiration_score>  (199) 
0.922

>  <tags>  (199) 
CpKRS_FrAncestor_bulkdock_iter2,CpKRS_FrAncestor_bulkdock_iter2_cluster_best5,BulkDock Fragalysis export,fragmenstein_placed,CpKRS_FrAncestor_bulkdock_iter2_exported

>  <distance_score>  (199) 
0.429276

>  <ref_pdb>  (199) 
x0421a

>  <alias>  (199) 
ZWRVROVUJFNFNC-XYPYZODXSA-N-P45

>  <subsites>  (199) 


>  <smiles>  (199) 
C#C[C@H]1CC[C@H](CNC(=O)c2cncs2)CC1

>  <HIPPO Compound ID>  (199) 
30505

>  <ref_mols>  (199) 
x0502a

>  <energy_score>  (199) 
-48.784926

$$$$
SJRZJPMTVDOYCJ-WDSKDSINSA-N-P11
     RDKit          3D

 14 15  0  0  0  0  0  0  0  0999 V2000
    4.9984   -8.4099   21.8664 C   0  0  0  0  0  0  0  0  0  0  0  0
    5.3694   -9.8541   21.6072 C   0  0  0  0  0  0  0  0  0  0  0  0
    5.1397  -10.7965   22.7426 C   0  0  1  0  0  0  0  0  0  0  0  0
    5.5133  -10.3591   24.1294 C   0  0  0  0  0  0  0  0  0  0  0  0
    4.0715  -10.6434   23.7966 C   0  0  2  0  0  0  0  0  0  0  0  0
    3.4428  -11.7447   24.4253 N   0  0  0  0  0  0  0  0  0  0  0  0
    4.0377  -13.0667   24.9672 C   0  0  0  0  0  0  0  0  0  0  0  0
    5.1260  -13.4861   24.9100 O   0  0  0  0  0  0  0  0  0  0  0  0
    2.9629  -13.7445   25.7221 C   0  0  0  0  0  0  0  0  0  0  0  0
    1.6405  -13.2434   25.6722 N   0  0  0  0  0  0  0  0  0  0  0  0
    0.8692  -13.9798   26.4406 C   0  0  0  0  0  0  0  0  0  0  0  0
    1.6318  -15.2376   27.3108 S   0  0  0  0  0  0  0  0  0  0  0  0
    3.1137  -14.8056   26.5925 C   0  0  0  0  0  0  0  0  0  0  0  0
    4.7323  -15.6836   27.0739 Br  0  0  0  0  0  0  0  0  0  0  0  0
  1  2  1  0
  3  2  1  6
  3  4  1  0
  4  5  1  0
  5  6  1  1
  6  7  1  0
  7  8  2  0
  7  9  1  0
  9 10  1  0
 10 11  2  0
 11 12  1  0
 12 13  1  0
 13 14  1  0
  5  3  1  0
 13  9  2  0
M  END
>  <placement_batch>  (200) 
CpKRS_FrAncestor_bulkdock_iter2_cluster_best5

>  <name>  (200) 
SJRZJPMTVDOYCJ-WDSKDSINSA-N-P11

>  <HIPPO Pose ID>  (200) 
62111

>  <inchikey>  (200) 
SJRZJPMTVDOYCJ-UHFFFAOYSA-N

>  <inspiration_score>  (200) 
0.84

>  <tags>  (200) 
CpKRS_FrAncestor_bulkdock_iter2,CpKRS_FrAncestor_bulkdock_iter2_cluster_best5,BulkDock Fragalysis export,fragmenstein_placed,CpKRS_FrAncestor_bulkdock_iter2_exported

>  <distance_score>  (200) 
0.611983

>  <ref_pdb>  (200) 
x0421a

>  <alias>  (200) 
SJRZJPMTVDOYCJ-WDSKDSINSA-N-P11

>  <subsites>  (200) 


>  <smiles>  (200) 
CC[C@H]1C[C@@H]1NC(=O)c1ncsc1Br

>  <HIPPO Compound ID>  (200) 
30530

>  <ref_mols>  (200) 
x0421a

>  <energy_score>  (200) 
-66.262975

$$$$
XIIZOENBBJPQJD-WDSKDSINSA-N-P13
     RDKit          3D

 14 15  0  0  0  0  0  0  0  0999 V2000
    5.4371   -8.3399   21.6508 C   0  0  0  0  0  0  0  0  0  0  0  0
    5.2743   -8.7884   23.0822 C   0  0  0  0  0  0  0  0  0  0  0  0
    4.4632  -10.0404   23.1176 C   0  0  1  0  0  0  0  0  0  0  0  0
    4.8898  -11.2432   22.3064 C   0  0  0  0  0  0  0  0  0  0  0  0
    5.0068  -11.2543   23.7966 C   0  0  2  0  0  0  0  0  0  0  0  0
    4.1770  -12.0815   24.5600 N   0  0  0  0  0  0  0  0  0  0  0  0
    4.3692  -13.5306   25.0240 C   0  0  0  0  0  0  0  0  0  0  0  0
    5.2814  -14.2442   24.9112 O   0  0  0  0  0  0  0  0  0  0  0  0
    3.1566  -13.8996   25.7596 C   0  0  0  0  0  0  0  0  0  0  0  0
    1.9533  -13.1862   25.5889 N   0  0  0  0  0  0  0  0  0  0  0  0
    1.0418  -13.6827   26.3959 C   0  0  0  0  0  0  0  0  0  0  0  0
    1.5596  -14.9343   27.4416 S   0  0  0  0  0  0  0  0  0  0  0  0
    3.0875  -14.8833   26.7135 C   0  0  0  0  0  0  0  0  0  0  0  0
    4.3172  -15.9258   27.2644 Cl  0  0  0  0  0  0  0  0  0  0  0  0
  1  2  1  0
  3  2  1  6
  3  4  1  0
  4  5  1  0
  5  6  1  1
  6  7  1  0
  7  8  2  0
  7  9  1  0
  9 10  1  0
 10 11  2  0
 11 12  1  0
 12 13  1  0
 13 14  1  0
  5  3  1  0
 13  9  2  0
M  END
>  <placement_batch>  (201) 
CpKRS_FrAncestor_bulkdock_iter2_cluster_best5

>  <name>  (201) 
XIIZOENBBJPQJD-WDSKDSINSA-N-P13

>  <HIPPO Pose ID>  (201) 
62121

>  <inchikey>  (201) 
XIIZOENBBJPQJD-UHFFFAOYSA-N

>  <inspiration_score>  (201) 
0.83

>  <tags>  (201) 
CpKRS_FrAncestor_bulkdock_iter2,CpKRS_FrAncestor_bulkdock_iter2_cluster_best5,BulkDock Fragalysis export,fragmenstein_placed,CpKRS_FrAncestor_bulkdock_iter2_exported

>  <distance_score>  (201) 
0.67713

>  <ref_pdb>  (201) 
x0421a

>  <alias>  (201) 
XIIZOENBBJPQJD-WDSKDSINSA-N-P13

>  <subsites>  (201) 


>  <smiles>  (201) 
CC[C@H]1C[C@@H]1NC(=O)c1ncsc1Cl

>  <HIPPO Compound ID>  (201) 
30532

>  <ref_mols>  (201) 
x0421c

>  <energy_score>  (201) 
-66.510138

$$$$
YYFOIGLQHZWAGQ-WDSKDSINSA-N-P20
     RDKit          3D

 14 15  0  0  0  0  0  0  0  0999 V2000
    2.7611    3.5709   47.1655 C   0  0  0  0  0  0  0  0  0  0  0  0
    3.2319    4.5305   46.0919 C   0  0  0  0  0  0  0  0  0  0  0  0
    2.4376    5.7900   46.1719 C   0  0  2  0  0  0  0  0  0  0  0  0
    1.1055    5.7844   45.4911 C   0  0  0  0  0  0  0  0  0  0  0  0
    2.1411    6.7582   45.0580 C   0  0  2  0  0  0  0  0  0  0  0  0
    2.8279    6.7823   43.8270 N   0  0  0  0  0  0  0  0  0  0  0  0
    3.2030    5.6263   42.8569 C   0  0  0  0  0  0  0  0  0  0  0  0
    2.9320    4.4881   42.8931 O   0  0  0  0  0  0  0  0  0  0  0  0
    4.1088    6.2029   41.8504 C   0  0  0  0  0  0  0  0  0  0  0  0
    4.2895    7.5092   41.7563 N   0  0  0  0  0  0  0  0  0  0  0  0
    5.1357    7.7694   40.7032 C   0  0  0  0  0  0  0  0  0  0  0  0
    5.4708    9.5600   40.2044 Br  0  0  0  0  0  0  0  0  0  0  0  0
    5.7000    6.6718   40.0930 C   0  0  0  0  0  0  0  0  0  0  0  0
    5.1098    5.2390   40.8381 S   0  0  0  0  0  0  0  0  0  0  0  0
  1  2  1  0
  3  2  1  6
  3  4  1  0
  4  5  1  0
  5  6  1  6
  6  7  1  0
  7  8  2  0
  7  9  1  0
  9 10  2  0
 10 11  1  0
 11 12  1  0
 11 13  2  0
 13 14  1  0
  5  3  1  0
 14  9  1  0
M  END
>  <placement_batch>  (202) 
CpKRS_FrAncestor_bulkdock_iter2_cluster_best5

>  <name>  (202) 
YYFOIGLQHZWAGQ-WDSKDSINSA-N-P20

>  <HIPPO Pose ID>  (202) 
62162

>  <inchikey>  (202) 
YYFOIGLQHZWAGQ-UHFFFAOYSA-N

>  <inspiration_score>  (202) 
0.853

>  <tags>  (202) 
CpKRS_FrAncestor_bulkdock_iter2,CpKRS_FrAncestor_bulkdock_iter2_cluster_best5,BulkDock Fragalysis export,fragmenstein_placed,CpKRS_FrAncestor_bulkdock_iter2_exported

>  <distance_score>  (202) 
0.798355

>  <ref_pdb>  (202) 
x0421a

>  <alias>  (202) 
YYFOIGLQHZWAGQ-WDSKDSINSA-N-P20

>  <subsites>  (202) 


>  <smiles>  (202) 
CC[C@H]1C[C@@H]1NC(=O)c1nc(Br)cs1

>  <HIPPO Compound ID>  (202) 
30545

>  <ref_mols>  (202) 
x0456a

>  <energy_score>  (202) 
-60.411507

$$$$
AUZANDLIGZXGSL-WDSKDSINSA-N-P20
     RDKit          3D

 14 15  0  0  0  0  0  0  0  0999 V2000
    3.1932    3.5184   46.5535 C   0  0  0  0  0  0  0  0  0  0  0  0
    2.0352    4.3768   47.0380 C   0  0  0  0  0  0  0  0  0  0  0  0
    1.6582    5.3387   45.9631 C   0  0  1  0  0  0  0  0  0  0  0  0
    1.2235    6.7671   46.1390 C   0  0  0  0  0  0  0  0  0  0  0  0
    2.6152    6.4689   45.6913 C   0  0  2  0  0  0  0  0  0  0  0  0
    3.0845    6.5783   44.3717 N   0  0  0  0  0  0  0  0  0  0  0  0
    3.4668    5.4820   43.3457 C   0  0  0  0  0  0  0  0  0  0  0  0
    3.3775    4.3185   43.4122 O   0  0  0  0  0  0  0  0  0  0  0  0
    4.1096    6.1255   42.2015 C   0  0  0  0  0  0  0  0  0  0  0  0
    4.2236    7.4397   42.0708 N   0  0  0  0  0  0  0  0  0  0  0  0
    4.8978    7.7013   40.8883 C   0  0  0  0  0  0  0  0  0  0  0  0
    5.3400    6.5862   40.2259 C   0  0  0  0  0  0  0  0  0  0  0  0
    6.1748    6.4863   38.7591 Cl  0  0  0  0  0  0  0  0  0  0  0  0
    4.9693    5.1690   41.0589 S   0  0  0  0  0  0  0  0  0  0  0  0
  1  2  1  0
  3  2  1  1
  3  4  1  0
  4  5  1  0
  5  6  1  6
  6  7  1  0
  7  8  2  0
  7  9  1  0
  9 10  2  0
 10 11  1  0
 11 12  2  0
 12 13  1  0
 12 14  1  0
  5  3  1  0
 14  9  1  0
M  END
>  <placement_batch>  (203) 
CpKRS_FrAncestor_bulkdock_iter2_cluster_best5

>  <name>  (203) 
AUZANDLIGZXGSL-WDSKDSINSA-N-P20

>  <HIPPO Pose ID>  (203) 
62164

>  <inchikey>  (203) 
AUZANDLIGZXGSL-UHFFFAOYSA-N

>  <inspiration_score>  (203) 
0.866

>  <tags>  (203) 
CpKRS_FrAncestor_bulkdock_iter2,CpKRS_FrAncestor_bulkdock_iter2_cluster_best5,BulkDock Fragalysis export,fragmenstein_placed,CpKRS_FrAncestor_bulkdock_iter2_exported

>  <distance_score>  (203) 
0.745169

>  <ref_pdb>  (203) 
x0421a

>  <alias>  (203) 
AUZANDLIGZXGSL-WDSKDSINSA-N-P20

>  <subsites>  (203) 


>  <smiles>  (203) 
CC[C@H]1C[C@@H]1NC(=O)c1ncc(Cl)s1

>  <HIPPO Compound ID>  (203) 
30547

>  <ref_mols>  (203) 
x0456a

>  <energy_score>  (203) 
-57.934625

$$$$
VHNTTYXELFGLAU-YUMQZZPRSA-N-P20
     RDKit          3D

 14 15  0  0  0  0  0  0  0  0999 V2000
    3.3164    3.4745   46.3877 C   0  0  0  0  0  0  0  0  0  0  0  0
    2.1953    4.3950   46.8427 C   0  0  0  0  0  0  0  0  0  0  0  0
    1.8698    5.3466   45.7389 C   0  0  1  0  0  0  0  0  0  0  0  0
    1.5307    6.8007   45.9230 C   0  0  0  0  0  0  0  0  0  0  0  0
    2.8847    6.4065   45.4210 C   0  0  2  0  0  0  0  0  0  0  0  0
    3.3107    6.5700   44.0897 N   0  0  0  0  0  0  0  0  0  0  0  0
    3.6455    5.5135   43.0005 C   0  0  0  0  0  0  0  0  0  0  0  0
    3.5443    4.3480   43.0188 O   0  0  0  0  0  0  0  0  0  0  0  0
    4.2558    6.2305   41.8708 C   0  0  0  0  0  0  0  0  0  0  0  0
    4.3098    7.5518   41.8250 N   0  0  0  0  0  0  0  0  0  0  0  0
    5.0550    7.9460   40.7248 C   0  0  0  0  0  0  0  0  0  0  0  0
    5.2258    9.3956   40.4630 C   0  0  0  0  0  0  0  0  0  0  0  0
    5.5975    6.9112   39.9857 C   0  0  0  0  0  0  0  0  0  0  0  0
    5.1673    5.4017   40.6723 S   0  0  0  0  0  0  0  0  0  0  0  0
  1  2  1  0
  3  2  1  1
  3  4  1  0
  4  5  1  0
  5  6  1  6
  6  7  1  0
  7  8  2  0
  7  9  1  0
  9 10  2  0
 10 11  1  0
 11 12  1  0
 11 13  2  0
 13 14  1  0
  5  3  1  0
 14  9  1  0
M  END
>  <placement_batch>  (204) 
CpKRS_FrAncestor_bulkdock_iter2_cluster_best5

>  <name>  (204) 
VHNTTYXELFGLAU-YUMQZZPRSA-N-P20

>  <HIPPO Pose ID>  (204) 
62167

>  <inchikey>  (204) 
VHNTTYXELFGLAU-UHFFFAOYSA-N

>  <inspiration_score>  (204) 
0.892

>  <tags>  (204) 
CpKRS_FrAncestor_bulkdock_iter2,CpKRS_FrAncestor_bulkdock_iter2_cluster_best5,BulkDock Fragalysis export,fragmenstein_placed,CpKRS_FrAncestor_bulkdock_iter2_exported

>  <distance_score>  (204) 
0.753094

>  <ref_pdb>  (204) 
x0421a

>  <alias>  (204) 
VHNTTYXELFGLAU-YUMQZZPRSA-N-P20

>  <subsites>  (204) 


>  <smiles>  (204) 
CC[C@H]1C[C@@H]1NC(=O)c1nc(C)cs1

>  <HIPPO Compound ID>  (204) 
30550

>  <ref_mols>  (204) 
x0456a

>  <energy_score>  (204) 
-58.372275

$$$$
HXWNRMYBUBWBSF-SBXXRYSUSA-N-P38
     RDKit          3D

 20 21  0  0  0  0  0  0  0  0999 V2000
    6.9638   -9.3915   24.7021 C   0  0  0  0  0  0  0  0  0  0  0  0
    6.1188  -10.1056   24.2412 C   0  0  0  0  0  0  0  0  0  0  0  0
    4.9635  -10.7200   23.5893 C   0  0  1  0  0  0  0  0  0  0  0  0
    4.3168  -11.6944   24.4261 N   0  0  0  0  0  0  0  0  0  0  0  0
    4.7556  -13.0989   24.8359 C   0  0  0  0  0  0  0  0  0  0  0  0
    5.7448  -13.6687   24.6276 O   0  0  0  0  0  0  0  0  0  0  0  0
    3.6999  -13.7775   25.6624 C   0  0  0  0  0  0  0  0  0  0  0  0
    4.0984  -14.8074   26.5267 C   0  0  0  0  0  0  0  0  0  0  0  0
    3.1760  -15.4350   27.3746 C   0  0  0  0  0  0  0  0  0  0  0  0
    1.8299  -15.0770   27.3441 C   0  0  0  0  0  0  0  0  0  0  0  0
    1.4262  -14.1070   26.4459 C   0  0  0  0  0  0  0  0  0  0  0  0
    2.3487  -13.4511   25.6408 C   0  0  0  0  0  0  0  0  0  0  0  0
    1.7571  -12.5075   24.8313 O   0  0  0  0  0  0  0  0  0  0  0  0
    0.4039  -12.3851   25.3383 C   0  0  1  0  0  0  0  0  0  0  0  0
   -0.5423  -12.0974   24.1856 C   0  0  0  0  0  0  0  0  0  0  0  0
    0.0597  -13.6842   26.0688 C   0  0  0  0  0  0  0  0  0  0  0  0
    4.0083   -9.5597   23.2083 C   0  0  0  0  0  0  0  0  0  0  0  0
    4.4886   -8.9531   21.8786 C   0  0  0  0  0  0  0  0  0  0  0  0
    2.5543  -10.0317   23.1039 C   0  0  0  0  0  0  0  0  0  0  0  0
    3.9763   -8.4576   24.2833 C   0  0  0  0  0  0  0  0  0  0  0  0
  1  2  3  0
  3  2  1  1
  3  4  1  0
  4  5  1  0
  5  6  2  0
  5  7  1  0
  7  8  2  0
  8  9  1  0
  9 10  2  0
 10 11  1  0
 11 12  2  0
 12 13  1  0
 13 14  1  0
 14 15  1  6
 14 16  1  0
  3 17  1  0
 17 18  1  0
 17 19  1  0
 17 20  1  0
 12  7  1  0
 16 11  1  0
M  END
>  <placement_batch>  (205) 
CpKRS_FrAncestor_bulkdock_iter2_cluster_best5

>  <name>  (205) 
HXWNRMYBUBWBSF-SBXXRYSUSA-N-P38

>  <HIPPO Pose ID>  (205) 
62197

>  <inchikey>  (205) 
HXWNRMYBUBWBSF-UHFFFAOYSA-N

>  <inspiration_score>  (205) 
0.761

>  <tags>  (205) 
CpKRS_FrAncestor_bulkdock_iter2,CpKRS_FrAncestor_bulkdock_iter2_cluster_best5,BulkDock Fragalysis export,fragmenstein_placed,CpKRS_FrAncestor_bulkdock_iter2_exported

>  <distance_score>  (205) 
0.703488

>  <ref_pdb>  (205) 
x0421a

>  <alias>  (205) 
HXWNRMYBUBWBSF-SBXXRYSUSA-N-P38

>  <subsites>  (205) 


>  <smiles>  (205) 
C#C[C@@H](NC(=O)c1cccc2c1OC(C)C2)C(C)(C)C

>  <HIPPO Compound ID>  (205) 
30557

>  <ref_mols>  (205) 
x0555a

>  <energy_score>  (205) 
-188.63686

$$$$
HXUJLBMBJGIMNP-UHFFFAOYSA-N-P11
     RDKit          3D

 20 22  0  0  0  0  0  0  0  0999 V2000
   -1.0995  -12.2156   26.0334 C   0  0  0  0  0  0  0  0  0  0  0  0
   -0.3811  -13.2294   26.4103 C   0  0  0  0  0  0  0  0  0  0  0  0
    0.3527  -14.2273   26.8018 C   0  0  0  0  0  0  0  0  0  0  0  0
    1.7131  -14.3287   26.5079 N   0  0  0  0  0  0  0  0  0  0  0  0
    2.5095  -15.3251   27.0438 C   0  0  0  0  0  0  0  0  0  0  0  0
    3.7896  -15.1088   26.6170 C   0  0  0  0  0  0  0  0  0  0  0  0
    3.7085  -13.9855   25.7678 C   0  0  0  0  0  0  0  0  0  0  0  0
    4.8482  -13.3507   25.0668 C   0  0  0  0  0  0  0  0  0  0  0  0
    5.9396  -13.7033   25.2687 O   0  0  0  0  0  0  0  0  0  0  0  0
    4.3195  -12.1929   24.2103 N   0  0  0  0  0  0  0  0  0  0  0  0
    5.0097  -11.2842   23.3481 C   0  0  1  0  0  0  0  0  0  0  0  0
    4.6796  -11.4261   21.8795 C   0  0  0  0  0  0  0  0  0  0  0  0
    5.1662  -10.1089   21.3010 C   0  0  0  0  0  0  0  0  0  0  0  0
    4.6859   -9.0862   22.3044 C   0  0  0  0  0  0  0  0  0  0  0  0
    4.8290   -9.7920   23.6769 C   0  0  0  0  0  0  0  0  0  0  0  0
    6.0424   -9.2189   24.4527 C   0  0  0  0  0  0  0  0  0  0  0  0
    5.4740   -8.2638   25.4956 C   0  0  0  0  0  0  0  0  0  0  0  0
    4.0174   -8.1481   25.1450 C   0  0  0  0  0  0  0  0  0  0  0  0
    3.6197   -9.4705   24.5544 C   0  0  0  0  0  0  0  0  0  0  0  0
    2.4502  -13.4956   25.7143 N   0  0  0  0  0  0  0  0  0  0  0  0
  1  2  2  0
  2  3  2  0
  3  4  1  0
  4  5  1  0
  5  6  2  0
  6  7  1  0
  7  8  1  0
  8  9  2  0
  8 10  1  0
 11 10  1  1
 11 12  1  0
 12 13  1  0
 13 14  1  0
 14 15  1  0
 15 16  1  0
 16 17  1  0
 17 18  1  0
 18 19  1  0
  7 20  2  0
 20  4  1  0
 15 11  1  0
 19 15  1  0
M  END
>  <placement_batch>  (206) 
CpKRS_FrAncestor_bulkdock_iter2_cluster_best5

>  <name>  (206) 
HXUJLBMBJGIMNP-UHFFFAOYSA-N-P11

>  <HIPPO Pose ID>  (206) 
62344

>  <inchikey>  (206) 
HXUJLBMBJGIMNP-UHFFFAOYSA-N

>  <inspiration_score>  (206) 
0.672

>  <tags>  (206) 
CpKRS_FrAncestor_bulkdock_iter2,CpKRS_FrAncestor_bulkdock_iter2_cluster_best5,BulkDock Fragalysis export,fragmenstein_placed,CpKRS_FrAncestor_bulkdock_iter2_exported

>  <distance_score>  (206) 
0.657271

>  <ref_pdb>  (206) 
x0421a

>  <alias>  (206) 
HXUJLBMBJGIMNP-UHFFFAOYSA-N-P11

>  <subsites>  (206) 


>  <smiles>  (206) 
C=C=Cn1ccc(C(=O)NC2CCCC23CCCC3)n1

>  <HIPPO Compound ID>  (206) 
30605

>  <ref_mols>  (206) 
x0421a

>  <energy_score>  (206) 
-38.568723

$$$$
NXMWMQRWELAVCA-UHFFFAOYSA-N-P17
     RDKit          3D

 15 16  0  0  0  0  0  0  0  0999 V2000
    4.9679   -9.7176   22.3026 C   0  0  0  0  0  0  0  0  0  0  0  0
    4.8414  -10.9104   22.3671 C   0  0  0  0  0  0  0  0  0  0  0  0
    4.7278  -12.3712   22.3419 C   0  0  0  0  0  0  0  0  0  0  0  0
    3.9904  -12.8693   23.4558 N   0  0  0  0  0  0  0  0  0  0  0  0
    4.4711  -13.3968   24.8147 C   0  0  0  0  0  0  0  0  0  0  0  0
    5.5402  -13.4380   25.2722 O   0  0  0  0  0  0  0  0  0  0  0  0
    3.3298  -13.8343   25.6967 C   0  0  0  0  0  0  0  0  0  0  0  0
    2.0209  -13.3094   25.5891 C   0  0  0  0  0  0  0  0  0  0  0  0
    1.0046  -13.6773   26.4760 C   0  0  0  0  0  0  0  0  0  0  0  0
    1.2618  -14.5354   27.5418 C   0  0  0  0  0  0  0  0  0  0  0  0
    2.5597  -15.0097   27.6578 C   0  0  0  0  0  0  0  0  0  0  0  0
    2.9943  -15.7895   28.6817 O   0  0  0  0  0  0  0  0  0  0  0  0
    4.3029  -16.0242   28.4472 C   0  0  0  0  0  0  0  0  0  0  0  0
    4.7107  -15.4324   27.2770 C   0  0  0  0  0  0  0  0  0  0  0  0
    3.5901  -14.7186   26.7714 C   0  0  0  0  0  0  0  0  0  0  0  0
  1  2  3  0
  2  3  1  0
  3  4  1  0
  4  5  1  0
  5  6  2  0
  5  7  1  0
  7  8  2  0
  8  9  1  0
  9 10  2  0
 10 11  1  0
 11 12  1  0
 12 13  1  0
 13 14  2  0
 14 15  1  0
 15  7  1  0
 15 11  2  0
M  END
>  <placement_batch>  (207) 
CpKRS_FrAncestor_bulkdock_iter2_cluster_best5

>  <name>  (207) 
NXMWMQRWELAVCA-UHFFFAOYSA-N-P17

>  <HIPPO Pose ID>  (207) 
62515

>  <inchikey>  (207) 
NXMWMQRWELAVCA-UHFFFAOYSA-N

>  <inspiration_score>  (207) 
0.624

>  <tags>  (207) 
CpKRS_FrAncestor_bulkdock_iter2,CpKRS_FrAncestor_bulkdock_iter2_cluster_best5,BulkDock Fragalysis export,fragmenstein_placed,CpKRS_FrAncestor_bulkdock_iter2_exported

>  <distance_score>  (207) 
0.53896

>  <ref_pdb>  (207) 
x0421a

>  <alias>  (207) 
NXMWMQRWELAVCA-UHFFFAOYSA-N-P17

>  <subsites>  (207) 


>  <smiles>  (207) 
C#CCNC(=O)c1cccc2occc12

>  <HIPPO Compound ID>  (207) 
30644

>  <ref_mols>  (207) 
x0434a

>  <energy_score>  (207) 
-2.654206

$$$$
FELUIZKWCBXBBI-UHFFFAOYSA-N-P17
     RDKit          3D

 15 16  0  0  0  0  0  0  0  0999 V2000
    4.9439   -9.5173   22.1479 C   0  0  0  0  0  0  0  0  0  0  0  0
    4.8811  -10.7156   22.1948 C   0  0  0  0  0  0  0  0  0  0  0  0
    4.8465  -12.1782   22.1682 C   0  0  0  0  0  0  0  0  0  0  0  0
    4.0710  -12.6951   23.2433 N   0  0  0  0  0  0  0  0  0  0  0  0
    4.4882  -13.1441   24.6408 C   0  0  0  0  0  0  0  0  0  0  0  0
    5.5196  -13.0945   25.1703 O   0  0  0  0  0  0  0  0  0  0  0  0
    3.3209  -13.6311   25.4531 C   0  0  0  0  0  0  0  0  0  0  0  0
    2.0249  -13.1059   25.2741 C   0  0  0  0  0  0  0  0  0  0  0  0
    0.9820  -13.4666   26.1175 C   0  0  0  0  0  0  0  0  0  0  0  0
    1.2173  -14.3048   27.2000 C   0  0  0  0  0  0  0  0  0  0  0  0
    2.5163  -14.7842   27.4173 C   0  0  0  0  0  0  0  0  0  0  0  0
    3.0326  -15.6810   28.7802 S   0  0  0  0  0  0  0  0  0  0  0  0
    4.5962  -15.8418   28.1675 C   0  0  0  0  0  0  0  0  0  0  0  0
    4.7546  -15.2062   26.9650 C   0  0  0  0  0  0  0  0  0  0  0  0
    3.5683  -14.5154   26.5395 C   0  0  0  0  0  0  0  0  0  0  0  0
  1  2  3  0
  2  3  1  0
  3  4  1  0
  4  5  1  0
  5  6  2  0
  5  7  1  0
  7  8  2  0
  8  9  1  0
  9 10  2  0
 10 11  1  0
 11 12  1  0
 12 13  1  0
 13 14  2  0
 14 15  1  0
 15  7  1  0
 15 11  2  0
M  END
>  <placement_batch>  (208) 
CpKRS_FrAncestor_bulkdock_iter2_cluster_best5

>  <name>  (208) 
FELUIZKWCBXBBI-UHFFFAOYSA-N-P17

>  <HIPPO Pose ID>  (208) 
62517

>  <inchikey>  (208) 
FELUIZKWCBXBBI-UHFFFAOYSA-N

>  <inspiration_score>  (208) 
0.576

>  <tags>  (208) 
CpKRS_FrAncestor_bulkdock_iter2,CpKRS_FrAncestor_bulkdock_iter2_cluster_best5,BulkDock Fragalysis export,fragmenstein_placed,CpKRS_FrAncestor_bulkdock_iter2_exported

>  <distance_score>  (208) 
0.687979

>  <ref_pdb>  (208) 
x0421a

>  <alias>  (208) 
FELUIZKWCBXBBI-UHFFFAOYSA-N-P17

>  <subsites>  (208) 


>  <smiles>  (208) 
C#CCNC(=O)c1cccc2sccc12

>  <HIPPO Compound ID>  (208) 
30646

>  <ref_mols>  (208) 
x0434a

>  <energy_score>  (208) 
-13.141925

$$$$
IWYQWBYJIBQUPU-UHFFFAOYSA-N-P17
     RDKit          3D

 15 16  0  0  0  0  0  0  0  0999 V2000
    4.9128   -9.6470   21.7419 C   0  0  0  0  0  0  0  0  0  0  0  0
    5.1543  -10.6814   22.5568 C   0  0  0  0  0  0  0  0  0  0  0  0
    4.9167  -12.1209   22.2250 C   0  0  0  0  0  0  0  0  0  0  0  0
    4.1132  -12.6636   23.2661 N   0  0  0  0  0  0  0  0  0  0  0  0
    4.4985  -13.1731   24.6560 C   0  0  0  0  0  0  0  0  0  0  0  0
    5.5222  -13.1618   25.2050 O   0  0  0  0  0  0  0  0  0  0  0  0
    3.3166  -13.6731   25.4464 C   0  0  0  0  0  0  0  0  0  0  0  0
    2.0193  -13.1478   25.2664 C   0  0  0  0  0  0  0  0  0  0  0  0
    0.9744  -13.4983   26.1126 C   0  0  0  0  0  0  0  0  0  0  0  0
    1.2072  -14.3234   27.2040 C   0  0  0  0  0  0  0  0  0  0  0  0
    2.5047  -14.8024   27.4256 C   0  0  0  0  0  0  0  0  0  0  0  0
    3.0173  -15.6767   28.8041 S   0  0  0  0  0  0  0  0  0  0  0  0
    4.5788  -15.8568   28.1938 C   0  0  0  0  0  0  0  0  0  0  0  0
    4.7400  -15.2404   26.9818 C   0  0  0  0  0  0  0  0  0  0  0  0
    3.5572  -14.5494   26.5436 C   0  0  0  0  0  0  0  0  0  0  0  0
  1  2  2  0
  2  3  1  0
  3  4  1  0
  4  5  1  0
  5  6  2  0
  5  7  1  0
  7  8  2  0
  8  9  1  0
  9 10  2  0
 10 11  1  0
 11 12  1  0
 12 13  1  0
 13 14  2  0
 14 15  1  0
 15  7  1  0
 15 11  2  0
M  END
>  <placement_batch>  (209) 
CpKRS_FrAncestor_bulkdock_iter2_cluster_best5

>  <name>  (209) 
IWYQWBYJIBQUPU-UHFFFAOYSA-N-P17

>  <HIPPO Pose ID>  (209) 
62518

>  <inchikey>  (209) 
IWYQWBYJIBQUPU-UHFFFAOYSA-N

>  <inspiration_score>  (209) 
0.587

>  <tags>  (209) 
CpKRS_FrAncestor_bulkdock_iter2,CpKRS_FrAncestor_bulkdock_iter2_cluster_best5,BulkDock Fragalysis export,fragmenstein_placed,CpKRS_FrAncestor_bulkdock_iter2_exported

>  <distance_score>  (209) 
0.671212

>  <ref_pdb>  (209) 
x0421a

>  <alias>  (209) 
IWYQWBYJIBQUPU-UHFFFAOYSA-N-P17

>  <subsites>  (209) 


>  <smiles>  (209) 
C=CCNC(=O)c1cccc2sccc12

>  <HIPPO Compound ID>  (209) 
30647

>  <ref_mols>  (209) 
x0434a

>  <energy_score>  (209) 
-11.498981

$$$$
HEQCLVWZBPKXSC-UHFFFAOYSA-N-P20
     RDKit          3D

 15 16  0  0  0  0  0  0  0  0999 V2000
    1.2592    7.7919   45.6273 C   0  0  0  0  0  0  0  0  0  0  0  0
    1.6531    6.7001   45.3419 C   0  0  0  0  0  0  0  0  0  0  0  0
    2.2533    5.4717   44.8640 C   0  0  1  0  0  0  0  0  0  0  0  0
    3.0705    5.7621   43.7349 N   0  0  0  0  0  0  0  0  0  0  0  0
    3.8145    4.8247   42.7752 C   0  0  0  0  0  0  0  0  0  0  0  0
    3.9420    3.6680   42.7982 O   0  0  0  0  0  0  0  0  0  0  0  0
    4.4591    5.6743   41.7572 C   0  0  0  0  0  0  0  0  0  0  0  0
    4.3535    6.9945   41.7819 N   0  0  0  0  0  0  0  0  0  0  0  0
    5.0647    7.5190   40.7233 C   0  0  0  0  0  0  0  0  0  0  0  0
    5.1011    9.3894   40.4411 Br  0  0  0  0  0  0  0  0  0  0  0  0
    5.7463    6.6124   39.9429 C   0  0  0  0  0  0  0  0  0  0  0  0
    5.4719    5.0244   40.5357 S   0  0  0  0  0  0  0  0  0  0  0  0
    3.0758    4.9965   46.0165 C   0  0  0  0  0  0  0  0  0  0  0  0
    3.4588    3.5459   46.0682 C   0  0  0  0  0  0  0  0  0  0  0  0
    2.4720    4.0854   47.0625 C   0  0  0  0  0  0  0  0  0  0  0  0
  1  2  3  0
  3  2  1  1
  3  4  1  0
  4  5  1  0
  5  6  2  0
  5  7  1  0
  7  8  2  0
  8  9  1  0
  9 10  1  0
  9 11  2  0
 11 12  1  0
  3 13  1  0
 13 14  1  0
 14 15  1  0
 12  7  1  0
 15 13  1  0
M  END
>  <placement_batch>  (210) 
CpKRS_FrAncestor_bulkdock_iter2_cluster_best5

>  <name>  (210) 
HEQCLVWZBPKXSC-UHFFFAOYSA-N-P20

>  <HIPPO Pose ID>  (210) 
62594

>  <inchikey>  (210) 
HEQCLVWZBPKXSC-UHFFFAOYSA-N

>  <inspiration_score>  (210) 
0.885

>  <tags>  (210) 
CpKRS_FrAncestor_bulkdock_iter2,CpKRS_FrAncestor_bulkdock_iter2_cluster_best5,BulkDock Fragalysis export,fragmenstein_placed,CpKRS_FrAncestor_bulkdock_iter2_exported

>  <distance_score>  (210) 
0.647816

>  <ref_pdb>  (210) 
x0421a

>  <alias>  (210) 
HEQCLVWZBPKXSC-UHFFFAOYSA-N-P20

>  <subsites>  (210) 


>  <smiles>  (210) 
C#CC(NC(=O)c1nc(Br)cs1)C1CC1

>  <HIPPO Compound ID>  (210) 
30677

>  <ref_mols>  (210) 
x0456a

>  <energy_score>  (210) 
-55.513327

$$$$
DUGKDIPNYOGIAE-UHFFFAOYSA-N-P22
     RDKit          3D

 18 19  0  0  0  0  0  0  0  0999 V2000
   21.2533    7.4261   21.9324 C   0  0  0  0  0  0  0  0  0  0  0  0
   21.6773    8.8806   21.8814 C   0  0  0  0  0  0  0  0  0  0  0  0
   23.1723    9.0079   21.6363 C   0  0  0  0  0  0  0  0  0  0  0  0
   21.1003    9.5963   23.0363 N   0  0  0  0  0  0  0  0  0  0  0  0
   21.9898   10.1020   24.3445 S   0  0  0  0  0  0  0  0  0  0  0  0
   21.0310   10.4157   25.3808 O   0  0  0  0  0  0  0  0  0  0  0  0
   22.9285   11.0873   23.8687 O   0  0  0  0  0  0  0  0  0  0  0  0
   22.7877    8.7021   24.7234 N   0  0  0  0  0  0  0  0  0  0  0  0
   22.0857    7.5746   25.3534 C   0  0  0  0  0  0  0  0  0  0  0  0
   22.8362    6.2976   24.9509 C   0  0  0  0  0  0  0  0  0  0  0  0
   24.1863    6.3302   25.5913 C   0  0  0  0  0  0  0  0  0  0  0  0
   24.7605    5.2115   26.1895 C   0  0  0  0  0  0  0  0  0  0  0  0
   24.0958    4.0499   26.2372 F   0  0  0  0  0  0  0  0  0  0  0  0
   26.0167    5.2894   26.7745 C   0  0  0  0  0  0  0  0  0  0  0  0
   26.7197    6.4919   26.7397 C   0  0  0  0  0  0  0  0  0  0  0  0
   26.1580    7.6141   26.1295 C   0  0  0  0  0  0  0  0  0  0  0  0
   24.8763    7.5512   25.5733 C   0  0  0  0  0  0  0  0  0  0  0  0
   24.2426    8.7882   24.9656 C   0  0  0  0  0  0  0  0  0  0  0  0
  1  2  1  0
  2  3  1  0
  2  4  1  0
  4  5  1  0
  5  6  2  0
  5  7  2  0
  5  8  1  0
  8  9  1  0
  9 10  1  0
 10 11  1  0
 11 12  2  0
 12 13  1  0
 12 14  1  0
 14 15  2  0
 15 16  1  0
 16 17  2  0
 17 18  1  0
 18  8  1  0
 17 11  1  0
M  END
>  <placement_batch>  (211) 
CpKRS_FrAncestor_bulkdock_iter2_cluster_best5

>  <name>  (211) 
DUGKDIPNYOGIAE-UHFFFAOYSA-N-P22

>  <HIPPO Pose ID>  (211) 
62728

>  <inchikey>  (211) 
DUGKDIPNYOGIAE-UHFFFAOYSA-N

>  <inspiration_score>  (211) 
0.867

>  <tags>  (211) 
CpKRS_FrAncestor_bulkdock_iter2,CpKRS_FrAncestor_bulkdock_iter2_cluster_best5,BulkDock Fragalysis export,fragmenstein_placed,CpKRS_FrAncestor_bulkdock_iter2_exported

>  <distance_score>  (211) 
0.827298

>  <ref_pdb>  (211) 
x0421a

>  <alias>  (211) 
DUGKDIPNYOGIAE-UHFFFAOYSA-N-P22

>  <subsites>  (211) 


>  <smiles>  (211) 
CC(C)NS(=O)(=O)N1CCc2c(F)cccc2C1

>  <HIPPO Compound ID>  (211) 
30718

>  <ref_mols>  (211) 
x0472b

>  <energy_score>  (211) 
-30.588432

$$$$
YODPGTDMWUNVRA-UHFFFAOYSA-N-P10
     RDKit          3D

 20 22  0  0  0  0  0  0  0  0999 V2000
    6.0707   -6.5856   25.2523 C   0  0  0  0  0  0  0  0  0  0  0  0
    5.3011   -7.8681   25.0163 C   0  0  0  0  0  0  0  0  0  0  0  0
    5.2163   -8.2430   23.5491 C   0  0  0  0  0  0  0  0  0  0  0  0
    5.3224   -7.4214   22.6409 O   0  0  0  0  0  0  0  0  0  0  0  0
    4.9823   -9.6735   23.2111 C   0  0  0  0  0  0  0  0  0  0  0  0
    5.2635  -10.0977   21.9154 C   0  0  0  0  0  0  0  0  0  0  0  0
    5.1448  -11.4455   21.6008 C   0  0  0  0  0  0  0  0  0  0  0  0
    4.7919  -12.3825   22.5609 C   0  0  0  0  0  0  0  0  0  0  0  0
    4.4949  -11.9621   23.8451 C   0  0  0  0  0  0  0  0  0  0  0  0
    4.1837  -12.8864   24.8303 N   0  0  0  0  0  0  0  0  0  0  0  0
    4.3753  -14.4266   24.8607 C   0  0  0  0  0  0  0  0  0  0  0  0
    4.7451  -15.1429   24.0478 O   0  0  0  0  0  0  0  0  0  0  0  0
    3.8795  -14.7108   26.2630 N   0  0  0  0  0  0  0  0  0  0  0  0
    2.3369  -14.9427   26.2852 C   0  0  0  0  0  0  0  0  0  0  0  0
    2.5268  -15.5735   27.6140 C   0  0  0  0  0  0  0  0  0  0  0  0
    2.5155  -14.6493   28.7986 C   0  0  0  0  0  0  0  0  0  0  0  0
    1.1772  -15.3136   29.0851 C   0  0  0  0  0  0  0  0  0  0  0  0
    1.5291  -16.4081   28.1970 O   0  0  0  0  0  0  0  0  0  0  0  0
    3.8195  -16.0154   27.0454 C   0  0  0  0  0  0  0  0  0  0  0  0
    4.5360  -10.6026   24.1593 C   0  0  0  0  0  0  0  0  0  0  0  0
  1  2  1  0
  2  3  1  0
  3  4  2  0
  3  5  1  0
  5  6  2  0
  6  7  1  0
  7  8  2  0
  8  9  1  0
  9 10  1  0
 10 11  1  0
 11 12  2  0
 11 13  1  0
 13 14  1  0
 14 15  1  0
 15 16  1  0
 16 17  1  0
 17 18  1  0
 15 19  1  0
  9 20  2  0
 20  5  1  0
 19 13  1  0
 18 15  1  0
M  END
>  <placement_batch>  (212) 
CpKRS_FrAncestor_bulkdock_iter2_cluster_best5

>  <name>  (212) 
YODPGTDMWUNVRA-UHFFFAOYSA-N-P10

>  <HIPPO Pose ID>  (212) 
62804

>  <inchikey>  (212) 
YODPGTDMWUNVRA-UHFFFAOYSA-N

>  <inspiration_score>  (212) 
0.728

>  <tags>  (212) 
CpKRS_FrAncestor_bulkdock_iter2,CpKRS_FrAncestor_bulkdock_iter2_cluster_best5,BulkDock Fragalysis export,fragmenstein_placed,CpKRS_FrAncestor_bulkdock_iter2_exported

>  <distance_score>  (212) 
0.737895

>  <ref_pdb>  (212) 
x0421a

>  <alias>  (212) 
YODPGTDMWUNVRA-UHFFFAOYSA-N-P10

>  <subsites>  (212) 


>  <smiles>  (212) 
CCC(=O)c1cccc(NC(=O)N2CC3(CCO3)C2)c1

>  <HIPPO Compound ID>  (212) 
30743

>  <ref_mols>  (212) 
x0419c

>  <energy_score>  (212) 
-15.726859

$$$$
KUMXNRRMINICNS-UHFFFAOYSA-N-P10
     RDKit          3D

 18 19  0  0  0  0  0  0  0  0999 V2000
    6.5210   -7.0339   24.4383 C   0  0  0  0  0  0  0  0  0  0  0  0
    5.5428   -8.1212   24.8348 C   0  0  0  0  0  0  0  0  0  0  0  0
    4.7221   -7.6687   26.0344 C   0  0  0  0  0  0  0  0  0  0  0  0
    4.6993   -8.3656   23.6898 O   0  0  0  0  0  0  0  0  0  0  0  0
    4.6430   -9.6983   23.3747 C   0  0  0  0  0  0  0  0  0  0  0  0
    5.0602  -10.0848   22.1090 C   0  0  0  0  0  0  0  0  0  0  0  0
    5.0581  -11.4383   21.7822 C   0  0  0  0  0  0  0  0  0  0  0  0
    4.6615  -12.4020   22.7090 C   0  0  0  0  0  0  0  0  0  0  0  0
    4.2329  -12.0098   23.9702 C   0  0  0  0  0  0  0  0  0  0  0  0
    3.9378  -12.9407   24.9611 N   0  0  0  0  0  0  0  0  0  0  0  0
    3.9808  -14.4935   24.9282 C   0  0  0  0  0  0  0  0  0  0  0  0
    4.1913  -15.2104   24.0599 O   0  0  0  0  0  0  0  0  0  0  0  0
    3.7606  -14.7792   26.4077 N   0  0  0  0  0  0  0  0  0  0  0  0
    2.2007  -15.0226   26.7328 C   0  0  0  0  0  0  0  0  0  0  0  0
    2.5907  -15.8247   27.9300 C   0  0  0  0  0  0  0  0  0  0  0  0
    2.1058  -16.1265   28.9960 O   0  0  0  0  0  0  0  0  0  0  0  0
    3.8560  -16.0987   27.1960 C   0  0  0  0  0  0  0  0  0  0  0  0
    4.1752  -10.6511   24.2823 C   0  0  0  0  0  0  0  0  0  0  0  0
  1  2  1  0
  2  3  1  0
  2  4  1  0
  4  5  1  0
  5  6  2  0
  6  7  1  0
  7  8  2  0
  8  9  1  0
  9 10  1  0
 10 11  1  0
 11 12  2  0
 11 13  1  0
 13 14  1  0
 14 15  1  0
 15 16  2  0
 15 17  1  0
  9 18  2  0
 18  5  1  0
 17 13  1  0
M  END
>  <placement_batch>  (213) 
CpKRS_FrAncestor_bulkdock_iter2_cluster_best5

>  <name>  (213) 
KUMXNRRMINICNS-UHFFFAOYSA-N-P10

>  <HIPPO Pose ID>  (213) 
62822

>  <inchikey>  (213) 
KUMXNRRMINICNS-UHFFFAOYSA-N

>  <inspiration_score>  (213) 
0.668

>  <tags>  (213) 
CpKRS_FrAncestor_bulkdock_iter2,CpKRS_FrAncestor_bulkdock_iter2_cluster_best5,BulkDock Fragalysis export,fragmenstein_placed,CpKRS_FrAncestor_bulkdock_iter2_exported

>  <distance_score>  (213) 
0.804264

>  <ref_pdb>  (213) 
x0421a

>  <alias>  (213) 
KUMXNRRMINICNS-UHFFFAOYSA-N-P10

>  <subsites>  (213) 


>  <smiles>  (213) 
CC(C)Oc1cccc(NC(=O)N2CC(=O)C2)c1

>  <HIPPO Compound ID>  (213) 
30749

>  <ref_mols>  (213) 
x0419c

>  <energy_score>  (213) 
-8.799567

$$$$
TULGWIGSCKGUBA-UHFFFAOYSA-N-P9
     RDKit          3D

 21 23  0  0  0  0  0  0  0  0999 V2000
    0.4970  -13.0773   26.7205 C   0  0  0  0  0  0  0  0  0  0  0  0
    0.6879  -14.0475   27.4026 C   0  0  0  0  0  0  0  0  0  0  0  0
    0.9195  -15.2983   28.1329 C   0  0  0  0  0  0  0  0  0  0  0  0
    2.2640  -15.4373   28.5397 O   0  0  0  0  0  0  0  0  0  0  0  0
    3.0907  -16.1940   27.6256 C   0  0  0  0  0  0  0  0  0  0  0  0
    3.2428  -15.7061   26.2067 C   0  0  0  0  0  0  0  0  0  0  0  0
    4.2776  -14.6941   26.7493 N   0  0  0  0  0  0  0  0  0  0  0  0
    5.1020  -14.1004   25.6374 C   0  0  0  0  0  0  0  0  0  0  0  0
    6.0874  -14.4519   25.1828 O   0  0  0  0  0  0  0  0  0  0  0  0
    4.1728  -12.9389   25.2283 N   0  0  0  0  0  0  0  0  0  0  0  0
    4.2396  -12.0786   24.1547 C   0  0  0  0  0  0  0  0  0  0  0  0
    4.7654  -12.5483   22.9415 C   0  0  0  0  0  0  0  0  0  0  0  0
    5.0952  -11.6627   21.9220 C   0  0  0  0  0  0  0  0  0  0  0  0
    4.9939  -10.3137   22.1825 C   0  0  0  0  0  0  0  0  0  0  0  0
    4.4576   -9.8856   23.3868 C   0  0  0  0  0  0  0  0  0  0  0  0
    3.9757  -10.7351   24.3543 C   0  0  0  0  0  0  0  0  0  0  0  0
    4.6900   -8.4618   23.5048 C   0  0  0  0  0  0  0  0  0  0  0  0
    4.4070   -7.7995   24.4828 O   0  0  0  0  0  0  0  0  0  0  0  0
    5.3988   -7.9679   22.2850 C   0  0  0  0  0  0  0  0  0  0  0  0
    5.4644   -9.1768   21.3482 C   0  0  0  0  0  0  0  0  0  0  0  0
    4.5523  -15.8535   27.6470 C   0  0  0  0  0  0  0  0  0  0  0  0
  1  2  3  0
  2  3  1  0
  3  4  1  0
  4  5  1  0
  5  6  1  0
  6  7  1  0
  7  8  1  0
  8  9  2  0
  8 10  1  0
 10 11  1  0
 11 12  2  0
 12 13  1  0
 13 14  2  0
 14 15  1  0
 15 16  2  0
 15 17  1  0
 17 18  2  0
 17 19  1  0
 19 20  1  0
  7 21  1  0
 21  5  1  0
 16 11  1  0
 20 14  1  0
M  END
>  <placement_batch>  (214) 
CpKRS_FrAncestor_bulkdock_iter2_cluster_best5

>  <name>  (214) 
TULGWIGSCKGUBA-UHFFFAOYSA-N-P9

>  <HIPPO Pose ID>  (214) 
62860

>  <inchikey>  (214) 
TULGWIGSCKGUBA-UHFFFAOYSA-N

>  <inspiration_score>  (214) 
0.737

>  <tags>  (214) 
CpKRS_FrAncestor_bulkdock_iter2,CpKRS_FrAncestor_bulkdock_iter2_cluster_best5,BulkDock Fragalysis export,fragmenstein_placed,CpKRS_FrAncestor_bulkdock_iter2_exported

>  <distance_score>  (214) 
0.859437

>  <ref_pdb>  (214) 
x0421a

>  <alias>  (214) 
TULGWIGSCKGUBA-UHFFFAOYSA-N-P9

>  <subsites>  (214) 


>  <smiles>  (214) 
C#CCOC1CN(C(=O)Nc2ccc3c(c2)C(=O)CC3)C1

>  <HIPPO Compound ID>  (214) 
30763

>  <ref_mols>  (214) 
x0419a

>  <energy_score>  (214) 
-1.018506

$$$$
