LYSRSCPZ-x0504_A_901_1_LYSRSCPZ-x0602+B+701+1__LIG
     RDKit          3D

 15 15  0  0  0  0  0  0  0  0999 V2000
    5.9110   -7.8370   23.4580 C   0  0  0  0  0  0  0  0  0  0  0  0
    5.2740   -9.0570   22.9740 N   0  0  0  0  0  0  0  0  0  0  0  0
    5.3120   -9.2300   21.5230 C   0  0  0  0  0  0  0  0  0  0  0  0
    4.7120   -9.9230   23.8270 C   0  0  0  0  0  0  0  0  0  0  0  0
    4.6540   -9.6930   25.0310 O   0  0  0  0  0  0  0  0  0  0  0  0
    4.1340  -11.2180   23.2630 C   0  0  0  0  0  0  0  0  0  0  0  0
    3.4140  -12.0190   24.2260 N   0  0  0  0  0  0  0  0  0  0  0  0
    3.9560  -13.0660   24.8530 C   0  0  0  0  0  0  0  0  0  0  0  0
    5.1110  -13.4430   24.6680 O   0  0  0  0  0  0  0  0  0  0  0  0
    3.0880  -13.7670   25.8360 C   0  0  0  0  0  0  0  0  0  0  0  0
    1.5400  -13.1280   26.2040 S   0  0  0  0  0  0  0  0  0  0  0  0
    1.3170  -14.2960   27.4150 C   0  0  0  0  0  0  0  0  0  0  0  0
    2.2900  -15.1550   27.5120 N   0  0  0  0  0  0  0  0  0  0  0  0
    3.2940  -14.8920   26.5990 C   0  0  0  0  0  0  0  0  0  0  0  0
    4.4760  -15.8050   26.5630 C   0  0  0  0  0  0  0  0  0  0  0  0
  1  2  1  0
  2  3  1  0
  2  4  1  0
  4  5  2  0
  4  6  1  0
  6  7  1  0
  7  8  1  0
  8  9  2  0
  8 10  1  0
 10 11  1  0
 11 12  1  0
 12 13  2  0
 13 14  1  0
 14 15  1  0
 10 14  2  0
M  END
$$$$
