LYSRSCPZ-x0434_A_901_1_LYSRSCPZ-x0602+B+701+1__LIG
     RDKit          3D

 17 18  0  0  0  0  0  0  0  0999 V2000
    3.7460  -15.8090   28.7830 F   0  0  0  0  0  0  0  0  0  0  0  0
    3.2030  -15.0630   27.7870 C   0  0  0  0  0  0  0  0  0  0  0  0
    1.8750  -14.7480   27.8630 C   0  0  0  0  0  0  0  0  0  0  0  0
    1.3320  -13.9920   26.8490 C   0  0  0  0  0  0  0  0  0  0  0  0
    2.1040  -13.5830   25.7930 C   0  0  0  0  0  0  0  0  0  0  0  0
    3.4560  -13.9110   25.7460 C   0  0  0  0  0  0  0  0  0  0  0  0
    4.0090  -14.6740   26.7640 C   0  0  0  0  0  0  0  0  0  0  0  0
    4.3530  -13.4860   24.6170 C   0  0  0  0  0  0  0  0  0  0  0  0
    5.5350  -13.8400   24.5870 O   0  0  0  0  0  0  0  0  0  0  0  0
    3.8220  -12.7000   23.6760 N   0  0  0  0  0  0  0  0  0  0  0  0
    4.6170  -12.1660   22.5780 C   0  0  0  0  0  0  0  0  0  0  0  0
    4.8910  -10.6950   22.7530 C   0  0  0  0  0  0  0  0  0  0  0  0
    4.8940  -10.1240   24.0180 C   0  0  0  0  0  0  0  0  0  0  0  0
    5.1370   -8.7710   24.1740 C   0  0  0  0  0  0  0  0  0  0  0  0
    5.3850   -7.9800   23.0760 C   0  0  0  0  0  0  0  0  0  0  0  0
    5.3850   -8.5310   21.8180 C   0  0  0  0  0  0  0  0  0  0  0  0
    5.1470   -9.8870   21.6540 C   0  0  0  0  0  0  0  0  0  0  0  0
  1  2  1  0
  2  3  2  0
  3  4  1  0
  4  5  2  0
  5  6  1  0
  6  7  2  0
  6  8  1  0
  8  9  2  0
  8 10  1  0
 10 11  1  0
 11 12  1  0
 12 13  2  0
 13 14  1  0
 14 15  2  0
 15 16  1  0
 16 17  2  0
  2  7  1  0
 12 17  1  0
M  END
$$$$
