ver_1.2
     RDKit          3D

 22 24  0  0  0  0  0  0  0  0999 V2000
    2.0878    1.9223    0.6699 O   0  0  0  0  0  0  0  0  0  0  0  0
    2.0933    0.6944    0.3628 C   0  0  0  0  0  0  0  0  0  0  0  0
    3.2035   -0.2188    0.7715 C   0  0  0  0  0  0  0  0  0  0  0  0
    4.5186    0.1997    0.2071 C   0  0  0  0  0  0  0  0  0  0  0  0
    5.2656   -0.0322   -0.8525 C   0  0  0  0  0  0  0  0  0  0  0  0
    6.3891    0.5040   -1.0624 N   0  0  0  0  0  0  0  0  0  0  0  0
    6.9863    1.3632   -0.2762 C   0  0  0  0  0  0  0  0  0  0  0  0
    5.6447    1.4143    1.0557 S   0  0  0  0  0  0  0  0  0  0  0  0
    1.0686    0.1219   -0.3744 O   0  0  0  0  0  0  0  0  0  0  0  0
   -0.0481    0.8518   -0.8341 C   0  0  0  0  0  0  0  0  0  0  0  0
   -0.9452   -0.0735   -1.6136 C   0  0  0  0  0  0  0  0  0  0  0  0
   -1.4311   -1.2164   -0.7979 C   0  0  0  0  0  0  0  0  0  0  0  0
   -0.7261   -2.4240   -0.7037 C   0  0  0  0  0  0  0  0  0  0  0  0
   -1.4944   -3.2095    0.1406 C   0  0  0  0  0  0  0  0  0  0  0  0
   -2.5691   -2.4944    0.5046 N   0  0  0  0  0  0  0  0  0  0  0  0
   -2.5519   -1.3012   -0.0449 N   0  0  0  0  0  0  0  0  0  0  0  0
   -3.5556   -0.3216    0.1435 C   0  0  0  0  0  0  0  0  0  0  0  0
   -4.2102   -0.2124    1.3951 C   0  0  0  0  0  0  0  0  0  0  0  0
   -5.1893    0.7383    1.5617 C   0  0  0  0  0  0  0  0  0  0  0  0
   -5.5994    1.6151    0.5954 C   0  0  0  0  0  0  0  0  0  0  0  0
   -4.9537    1.5152   -0.6546 C   0  0  0  0  0  0  0  0  0  0  0  0
   -3.9833    0.5640   -0.7980 C   0  0  0  0  0  0  0  0  0  0  0  0
  1  2  2  0
  2  3  1  0
  3  4  1  0
  4  5  2  0
  5  6  1  0
  6  7  2  0
  7  8  1  0
  2  9  1  0
  9 10  1  0
 10 11  1  0
 11 12  1  0
 12 13  2  0
 13 14  1  0
 14 15  2  0
 15 16  1  0
 16 17  1  0
 17 18  2  0
 18 19  1  0
 19 20  2  0
 20 21  1  0
 21 22  2  0
  8  4  1  0
 16 12  1  0
 22 17  1  0
M  END
>  <ref_url>  (1) 
https://github.com/mwinokan/BulkDock

>  <submitter_name>  (1) 
Max Winokan

>  <submitter_email>  (1) 
max.winokan@diamond.ac.uk

>  <submitter_institution>  (1) 
DLS

>  <generation_date>  (1) 
2025-02-24

>  <method>  (1) 
iter1_knit_pure

>  <SLURM_JOB_ID>  (1) 
SLURM_JOB_ID

>  <SLURM_JOB_NAME>  (1) 
SLURM_JOB_NAME

>  <csv_name>  (1) 
csv_name

>  <scratch_subdir>  (1) 
scratch_subdir

>  <fragmenstein_runtime>  (1) 
fragmenstein_runtime

>  <fragmenstein_outcome>  (1) 
fragmenstein_outcome

>  <fragmenstein_mode>  (1) 
fragmenstein_mode

>  <fragmenstein_error>  (1) 
fragmenstein_error

>  <exports>  (1) 
exports

>  <score_inspiration>  (1) 
score_inspiration

>  <HIPPO Pose ID>  (1) 
HIPPO Pose ID

>  <HIPPO Compound ID>  (1) 
HIPPO Compound ID

>  <smiles>  (1) 
smiles

>  <ref_pdb>  (1) 
protein reference

>  <ref_mols>  (1) 
fragment inspirations

>  <original ID>  (1) 
original ID

>  <compound inchikey>  (1) 
compound inchikey

$$$$
1789
     RDKit          3D

 22 24  0  0  0  0  0  0  0  0999 V2000
  -11.0636  -15.8142   46.7110 O   0  0  0  0  0  0  0  0  0  0  0  0
  -11.8281  -14.9157   46.3794 C   0  0  0  0  0  0  0  0  0  0  0  0
  -11.4127  -13.4841   46.1069 C   0  0  0  0  0  0  0  0  0  0  0  0
  -10.2348  -13.0120   46.9144 C   0  0  0  0  0  0  0  0  0  0  0  0
   -9.6558  -13.4859   48.0793 C   0  0  0  0  0  0  0  0  0  0  0  0
   -8.6151  -12.7298   48.5938 N   0  0  0  0  0  0  0  0  0  0  0  0
   -8.3669  -11.7287   47.7825 C   0  0  0  0  0  0  0  0  0  0  0  0
   -9.3979  -11.5836   46.4233 S   0  0  0  0  0  0  0  0  0  0  0  0
  -13.1571  -15.1845   46.2562 O   0  0  0  0  0  0  0  0  0  0  0  0
  -13.9758  -14.6061   45.2155 C   0  0  0  0  0  0  0  0  0  0  0  0
  -14.2398  -15.6712   44.1390 C   0  0  0  0  0  0  0  0  0  0  0  0
  -13.0367  -15.8771   43.2813 C   0  0  0  0  0  0  0  0  0  0  0  0
  -12.0706  -16.8539   43.4284 C   0  0  0  0  0  0  0  0  0  0  0  0
  -10.9956  -16.3975   42.6656 C   0  0  0  0  0  0  0  0  0  0  0  0
  -11.2572  -15.2580   42.0315 N   0  0  0  0  0  0  0  0  0  0  0  0
  -12.5618  -15.0005   42.3056 N   0  0  0  0  0  0  0  0  0  0  0  0
  -13.1966  -13.9104   41.6436 C   0  0  0  0  0  0  0  0  0  0  0  0
  -14.5784  -13.8717   41.4336 C   0  0  0  0  0  0  0  0  0  0  0  0
  -15.1578  -12.7861   40.7683 C   0  0  0  0  0  0  0  0  0  0  0  0
  -14.3623  -11.7441   40.2950 C   0  0  0  0  0  0  0  0  0  0  0  0
  -12.9821  -11.7889   40.4715 C   0  0  0  0  0  0  0  0  0  0  0  0
  -12.3996  -12.8692   41.1374 C   0  0  0  0  0  0  0  0  0  0  0  0
  1  2  2  0
  2  3  1  0
  3  4  1  0
  4  5  2  0
  5  6  1  0
  6  7  2  0
  7  8  1  0
  2  9  1  0
  9 10  1  0
 10 11  1  0
 11 12  1  0
 12 13  2  0
 13 14  1  0
 14 15  2  0
 15 16  1  0
 16 17  1  0
 17 18  2  0
 18 19  1  0
 19 20  2  0
 20 21  1  0
 21 22  2  0
  8  4  1  0
 16 12  1  0
 22 17  1  0
M  END
>  <original SMILES>  (1) 
O=C(Cc1cncs1)OCCc1ccnn1-c1ccccc1

>  <original ID>  (1) 
WDZNYRFTLQSZDQ-UHFFFAOYSA-N

>  <inchikey>  (1) 
WDZNYRFTLQSZDQ-UHFFFAOYSA-N

>  <fragmenstein_error>  (1) 
None

>  <ref_mols>  (1) 
x0502b,x0787b

>  <HIPPO Pose ID>  (1) 
1789

>  <fragmenstein_mode>  (1) 
expansion

>  <fragmenstein_outcome>  (1) 
acceptable

>  <name>  (1) 
WDZNYRFTLQSZDQ-UHFFFAOYSA-N

>  <scratch_subdir>  (1) 
/opt/xchem-fragalysis-2/maxwin/BulkDock/SCRATCH/302006/C8414-P44

>  <distance_score>  (1) 
0.981116

>  <ref_pdb>  (1) 
x0502b

>  <alias>  (1) 
None

>  <HIPPO Compound ID>  (1) 
8414

>  <SLURM_JOB_ID>  (1) 
302006

>  <tags>  (1) 
BulkDock Fragalysis export;Fragmenstein placed

>  <csv_name>  (1) 
CpKRS_iter1_knitwork_pure_split1000_batch115.csv

>  <energy_score>  (1) 
-37.100923

>  <score_inspiration>  (1) 
0.373775

>  <fragmenstein_runtime>  (1) 
4.648124

$$$$
5256
     RDKit          3D

 18 19  0  0  0  0  0  0  0  0999 V2000
    1.9386  -12.3138   24.0480 C   0  0  0  0  0  0  0  0  0  0  0  0
    3.4468  -12.2541   24.3179 C   0  0  1  0  0  0  0  0  0  0  0  0
    4.0625  -13.4378   25.0973 C   0  0  0  0  0  0  0  0  0  0  0  0
    3.3502  -13.9405   26.3229 C   0  0  0  0  0  0  0  0  0  0  0  0
    3.9009  -14.9894   27.0640 C   0  0  0  0  0  0  0  0  0  0  0  0
    3.3959  -15.4153   28.2525 N   0  0  0  0  0  0  0  0  0  0  0  0
    2.2662  -14.7871   28.6319 C   0  0  0  0  0  0  0  0  0  0  0  0
    1.6813  -13.7885   27.8779 C   0  0  0  0  0  0  0  0  0  0  0  0
    2.2100  -13.3321   26.7267 N   0  0  0  0  0  0  0  0  0  0  0  0
    4.1459  -12.1054   23.0083 N   0  0  0  0  0  0  0  0  0  0  0  0
    4.6827  -10.8333   22.8194 C   0  0  0  0  0  0  0  0  0  0  0  0
    5.6332  -10.3275   23.6688 C   0  0  0  0  0  0  0  0  0  0  0  0
    5.9668   -8.9959   23.5382 C   0  0  0  0  0  0  0  0  0  0  0  0
    6.7206   -8.3177   24.6281 C   0  0  0  0  0  0  0  0  0  0  0  0
    5.7935   -8.0330   25.6692 O   0  0  0  0  0  0  0  0  0  0  0  0
    5.4678   -8.2166   22.5747 N   0  0  0  0  0  0  0  0  0  0  0  0
    4.6248   -8.8394   21.7499 C   0  0  0  0  0  0  0  0  0  0  0  0
    4.1888  -10.0991   21.8302 N   0  0  0  0  0  0  0  0  0  0  0  0
  2  1  1  6
  2  3  1  0
  3  4  1  0
  4  5  2  0
  5  6  1  0
  6  7  2  0
  7  8  1  0
  8  9  2  0
  2 10  1  0
 10 11  1  0
 11 12  2  0
 12 13  1  0
 13 14  1  0
 14 15  1  0
 13 16  2  0
 16 17  1  0
 17 18  2  0
  9  4  1  0
 18 11  1  0
M  END
>  <original SMILES>  (2) 
C[C@@H](Cc1cnccn1)Nc1cc(CO)ncn1

>  <original ID>  (2) 
NRSJBZYWOZHGJJ-VIFPVBQESA-N

>  <inchikey>  (2) 
NRSJBZYWOZHGJJ-VIFPVBQESA-N

>  <fragmenstein_error>  (2) 
None

>  <ref_mols>  (2) 
x0414a,x0492b

>  <HIPPO Pose ID>  (2) 
5256

>  <fragmenstein_mode>  (2) 
expansion

>  <fragmenstein_outcome>  (2) 
acceptable

>  <name>  (2) 
NRSJBZYWOZHGJJ-VIFPVBQESA-N

>  <scratch_subdir>  (2) 
/opt/xchem-fragalysis-2/maxwin/BulkDock/SCRATCH/301900/C1083-P35

>  <distance_score>  (2) 
0.902777

>  <ref_pdb>  (2) 
x0492b

>  <alias>  (2) 
None

>  <HIPPO Compound ID>  (2) 
1083

>  <SLURM_JOB_ID>  (2) 
301900

>  <tags>  (2) 
BulkDock Fragalysis export;Fragmenstein placed

>  <csv_name>  (2) 
CpKRS_iter1_knitwork_pure_split1000_batch009.csv

>  <energy_score>  (2) 
-12.302349

>  <score_inspiration>  (2) 
0.532718

>  <fragmenstein_runtime>  (2) 
2.250591

$$$$
7925
     RDKit          3D

 15 16  0  0  0  0  0  0  0  0999 V2000
    5.9124   -7.4253   24.3509 C   0  0  0  0  0  0  0  0  0  0  0  0
    5.4066   -8.4138   23.6079 C   0  0  0  0  0  0  0  0  0  0  0  0
    5.1658   -8.3598   22.1359 C   0  0  0  0  0  0  0  0  0  0  0  0
    4.9362   -9.8245   21.8044 C   0  0  0  0  0  0  0  0  0  0  0  0
    4.1979  -10.3099   22.9735 N   0  0  0  0  0  0  0  0  0  0  0  0
    4.1025  -11.7827   23.0324 C   0  0  0  0  0  0  0  0  0  0  0  0
    3.1857  -12.3622   24.1736 C   0  0  2  0  0  0  0  0  0  0  0  0
    2.5737  -11.2904   24.9680 N   0  0  0  0  0  0  0  0  0  0  0  0
    3.9941  -13.3493   25.0350 C   0  0  0  0  0  0  0  0  0  0  0  0
    3.3069  -14.0747   26.1613 C   0  0  0  0  0  0  0  0  0  0  0  0
    3.8772  -15.0498   26.9642 C   0  0  0  0  0  0  0  0  0  0  0  0
    3.1174  -15.5010   28.0229 N   0  0  0  0  0  0  0  0  0  0  0  0
    1.9568  -14.8912   27.9933 C   0  0  0  0  0  0  0  0  0  0  0  0
    1.6946  -13.8122   26.6890 S   0  0  0  0  0  0  0  0  0  0  0  0
    4.9496   -9.7483   24.1153 C   0  0  0  0  0  0  0  0  0  0  0  0
  1  2  2  0
  2  3  1  0
  3  4  1  0
  4  5  1  0
  5  6  1  0
  6  7  1  0
  7  8  1  1
  7  9  1  0
  9 10  1  0
 10 11  2  0
 11 12  1  0
 12 13  2  0
 13 14  1  0
  5 15  1  0
 15  2  1  0
 14 10  1  0
M  END
>  <original SMILES>  (3) 
C=C1CCN(C[C@H](N)Cc2cncs2)C1

>  <original ID>  (3) 
QCMBMCNEXNYOFQ-SNVBAGLBSA-N

>  <inchikey>  (3) 
QCMBMCNEXNYOFQ-SNVBAGLBSA-N

>  <fragmenstein_error>  (3) 
None

>  <ref_mols>  (3) 
x0414a,x0502a

>  <HIPPO Pose ID>  (3) 
7925

>  <fragmenstein_mode>  (3) 
expansion

>  <fragmenstein_outcome>  (3) 
acceptable

>  <name>  (3) 
QCMBMCNEXNYOFQ-SNVBAGLBSA-N

>  <scratch_subdir>  (3) 
/opt/xchem-fragalysis-2/maxwin/BulkDock/SCRATCH/301900/C1192-P45

>  <distance_score>  (3) 
0.863406

>  <ref_pdb>  (3) 
x0502a

>  <alias>  (3) 
None

>  <HIPPO Compound ID>  (3) 
1192

>  <SLURM_JOB_ID>  (3) 
301900

>  <tags>  (3) 
BulkDock Fragalysis export;Fragmenstein placed

>  <csv_name>  (3) 
CpKRS_iter1_knitwork_pure_split1000_batch009.csv

>  <energy_score>  (3) 
-59.115315

>  <score_inspiration>  (3) 
0.559943

>  <fragmenstein_runtime>  (3) 
2.421151

$$$$
8542
     RDKit          3D

 15 16  0  0  0  0  0  0  0  0999 V2000
    2.6812  -11.1927   25.0156 N   0  0  0  0  0  0  0  0  0  0  0  0
    3.2123  -12.2744   24.1789 C   0  0  2  0  0  0  0  0  0  0  0  0
    4.0050  -13.3122   24.9947 C   0  0  0  0  0  0  0  0  0  0  0  0
    3.3152  -14.0347   26.1220 C   0  0  0  0  0  0  0  0  0  0  0  0
    3.8820  -15.0073   26.9303 C   0  0  0  0  0  0  0  0  0  0  0  0
    3.1152  -15.4599   27.9836 N   0  0  0  0  0  0  0  0  0  0  0  0
    1.9537  -14.8524   27.9449 C   0  0  0  0  0  0  0  0  0  0  0  0
    1.6977  -13.7760   26.6369 S   0  0  0  0  0  0  0  0  0  0  0  0
    4.1109  -11.7074   23.0181 C   0  0  0  0  0  0  0  0  0  0  0  0
    4.2470  -10.2350   22.9694 N   0  0  0  0  0  0  0  0  0  0  0  0
    4.9021   -9.7549   21.7540 C   0  0  0  0  0  0  0  0  0  0  0  0
    5.2233   -8.3270   22.1245 C   0  0  0  0  0  0  0  0  0  0  0  0
    5.7863   -8.4787   23.5160 C   0  0  1  0  0  0  0  0  0  0  0  0
    5.5445   -7.3596   24.2328 F   0  0  0  0  0  0  0  0  0  0  0  0
    5.0584   -9.6934   24.0852 C   0  0  0  0  0  0  0  0  0  0  0  0
  2  1  1  1
  2  3  1  0
  3  4  1  0
  4  5  2  0
  5  6  1  0
  6  7  2  0
  7  8  1  0
  2  9  1  0
  9 10  1  0
 10 11  1  0
 11 12  1  0
 12 13  1  0
 13 14  1  1
 13 15  1  0
  8  4  1  0
 15 10  1  0
M  END
>  <original SMILES>  (4) 
N[C@H](Cc1cncs1)CN1CC[C@@H](F)C1

>  <original ID>  (4) 
PCYGYXDHHYJWIB-RKDXNWHRSA-N

>  <inchikey>  (4) 
PCYGYXDHHYJWIB-RKDXNWHRSA-N

>  <fragmenstein_error>  (4) 
None

>  <ref_mols>  (4) 
x0414a,x0502a

>  <HIPPO Pose ID>  (4) 
8542

>  <fragmenstein_mode>  (4) 
expansion

>  <fragmenstein_outcome>  (4) 
acceptable

>  <name>  (4) 
PCYGYXDHHYJWIB-RKDXNWHRSA-N

>  <scratch_subdir>  (4) 
/opt/xchem-fragalysis-2/maxwin/BulkDock/SCRATCH/301900/C1257-P45

>  <distance_score>  (4) 
0.789255

>  <ref_pdb>  (4) 
x0502a

>  <alias>  (4) 
None

>  <HIPPO Compound ID>  (4) 
1257

>  <SLURM_JOB_ID>  (4) 
301900

>  <tags>  (4) 
BulkDock Fragalysis export;Fragmenstein placed

>  <csv_name>  (4) 
CpKRS_iter1_knitwork_pure_split1000_batch009.csv

>  <energy_score>  (4) 
-71.560047

>  <score_inspiration>  (4) 
0.569808

>  <fragmenstein_runtime>  (4) 
2.069632

$$$$
9225
     RDKit          3D

 15 17  0  0  0  0  0  0  0  0999 V2000
    1.5901  -12.3272   23.7453 N   0  0  0  0  0  0  0  0  0  0  0  0
    2.9353  -11.9440   24.2191 C   0  0  1  0  0  0  0  0  0  0  0  0
    3.7880  -13.0593   24.8630 C   0  0  0  0  0  0  0  0  0  0  0  0
    3.1869  -13.8138   26.0237 C   0  0  0  0  0  0  0  0  0  0  0  0
    3.7569  -14.8790   26.7030 C   0  0  0  0  0  0  0  0  0  0  0  0
    3.0715  -15.3409   27.8108 N   0  0  0  0  0  0  0  0  0  0  0  0
    1.9686  -14.6446   27.9443 C   0  0  0  0  0  0  0  0  0  0  0  0
    1.6630  -13.4685   26.7412 S   0  0  0  0  0  0  0  0  0  0  0  0
    3.6811  -11.2868   23.0169 C   0  0  0  0  0  0  0  0  0  0  0  0
    4.7339  -10.3413   23.3838 N   0  0  0  0  0  0  0  0  0  0  0  0
    4.2503   -9.3513   24.3519 C   0  0  0  0  0  0  0  0  0  0  0  0
    5.1227   -8.1776   24.1564 C   0  0  1  0  0  0  0  0  0  0  0  0
    6.6130   -8.2621   24.0354 C   0  0  0  0  0  0  0  0  0  0  0  0
    5.7271   -8.3057   22.8115 C   0  0  1  0  0  0  0  0  0  0  0  0
    5.2552   -9.6023   22.2190 C   0  0  0  0  0  0  0  0  0  0  0  0
  2  1  1  6
  2  3  1  0
  3  4  1  0
  4  5  2  0
  5  6  1  0
  6  7  2  0
  7  8  1  0
  2  9  1  0
  9 10  1  0
 10 11  1  0
 12 11  1  1
 12 13  1  0
 14 13  1  1
 14 15  1  0
  8  4  1  0
 15 10  1  0
 14 12  1  0
M  END
>  <original SMILES>  (5) 
N[C@@H](Cc1cncs1)CN1C[C@H]2C[C@H]2C1

>  <original ID>  (5) 
WYFMZCMUDFTPIA-AEJSXWLSSA-N

>  <inchikey>  (5) 
WYFMZCMUDFTPIA-AEJSXWLSSA-N

>  <fragmenstein_error>  (5) 
None

>  <ref_mols>  (5) 
x0414a,x0502c

>  <HIPPO Pose ID>  (5) 
9225

>  <fragmenstein_mode>  (5) 
expansion

>  <fragmenstein_outcome>  (5) 
acceptable

>  <name>  (5) 
WYFMZCMUDFTPIA-AEJSXWLSSA-N

>  <scratch_subdir>  (5) 
/opt/xchem-fragalysis-2/maxwin/BulkDock/SCRATCH/301900/C1189-P46

>  <distance_score>  (5) 
0.960768

>  <ref_pdb>  (5) 
x0502c

>  <alias>  (5) 
None

>  <HIPPO Compound ID>  (5) 
1189

>  <SLURM_JOB_ID>  (5) 
301900

>  <tags>  (5) 
BulkDock Fragalysis export;Fragmenstein placed

>  <csv_name>  (5) 
CpKRS_iter1_knitwork_pure_split1000_batch009.csv

>  <energy_score>  (5) 
-78.812046

>  <score_inspiration>  (5) 
0.531652

>  <fragmenstein_runtime>  (5) 
2.117117

$$$$
9236
     RDKit          3D

 15 16  0  0  0  0  0  0  0  0999 V2000
    6.1515   -7.7523   24.4199 C   0  0  0  0  0  0  0  0  0  0  0  0
    5.4552   -8.5587   23.6127 C   0  0  0  0  0  0  0  0  0  0  0  0
    5.8031   -8.8525   22.1882 C   0  0  0  0  0  0  0  0  0  0  0  0
    4.8900  -10.0169   21.8442 C   0  0  0  0  0  0  0  0  0  0  0  0
    4.5087  -10.6052   23.1371 N   0  0  0  0  0  0  0  0  0  0  0  0
    3.3084  -11.4280   22.9905 C   0  0  0  0  0  0  0  0  0  0  0  0
    2.6920  -12.0325   24.2785 C   0  0  1  0  0  0  0  0  0  0  0  0
    1.3447  -12.5524   23.9217 N   0  0  0  0  0  0  0  0  0  0  0  0
    3.6361  -13.0655   24.9325 C   0  0  0  0  0  0  0  0  0  0  0  0
    3.1040  -13.8437   26.1119 C   0  0  0  0  0  0  0  0  0  0  0  0
    3.7082  -14.9261   26.7312 C   0  0  0  0  0  0  0  0  0  0  0  0
    3.0869  -15.4115   27.8671 N   0  0  0  0  0  0  0  0  0  0  0  0
    1.9909  -14.7228   28.0754 C   0  0  0  0  0  0  0  0  0  0  0  0
    1.6269  -13.5098   26.9264 S   0  0  0  0  0  0  0  0  0  0  0  0
    4.3311   -9.4529   24.0227 C   0  0  0  0  0  0  0  0  0  0  0  0
  1  2  2  0
  2  3  1  0
  3  4  1  0
  4  5  1  0
  5  6  1  0
  6  7  1  0
  7  8  1  6
  7  9  1  0
  9 10  1  0
 10 11  2  0
 11 12  1  0
 12 13  2  0
 13 14  1  0
  5 15  1  0
 15  2  1  0
 14 10  1  0
M  END
>  <original SMILES>  (6) 
C=C1CCN(C[C@@H](N)Cc2cncs2)C1

>  <original ID>  (6) 
QCMBMCNEXNYOFQ-JTQLQIEISA-N

>  <inchikey>  (6) 
QCMBMCNEXNYOFQ-JTQLQIEISA-N

>  <fragmenstein_error>  (6) 
None

>  <ref_mols>  (6) 
x0414a,x0502c

>  <HIPPO Pose ID>  (6) 
9236

>  <fragmenstein_mode>  (6) 
expansion

>  <fragmenstein_outcome>  (6) 
acceptable

>  <name>  (6) 
QCMBMCNEXNYOFQ-JTQLQIEISA-N

>  <scratch_subdir>  (6) 
/opt/xchem-fragalysis-2/maxwin/BulkDock/SCRATCH/301900/C1192-P46

>  <distance_score>  (6) 
0.816265

>  <ref_pdb>  (6) 
x0502c

>  <alias>  (6) 
None

>  <HIPPO Compound ID>  (6) 
1192

>  <SLURM_JOB_ID>  (6) 
301900

>  <tags>  (6) 
BulkDock Fragalysis export;Fragmenstein placed

>  <csv_name>  (6) 
CpKRS_iter1_knitwork_pure_split1000_batch009.csv

>  <energy_score>  (6) 
-65.393985

>  <score_inspiration>  (6) 
0.529781

>  <fragmenstein_runtime>  (6) 
3.419573

$$$$
9366
     RDKit          3D

 15 16  0  0  0  0  0  0  0  0999 V2000
    2.1960  -11.0699   25.0089 N   0  0  0  0  0  0  0  0  0  0  0  0
    2.8592  -12.1135   24.1861 C   0  0  2  0  0  0  0  0  0  0  0  0
    3.8370  -13.0256   24.9533 C   0  0  0  0  0  0  0  0  0  0  0  0
    3.2625  -13.8630   26.0715 C   0  0  0  0  0  0  0  0  0  0  0  0
    3.9108  -14.8717   26.7660 C   0  0  0  0  0  0  0  0  0  0  0  0
    3.2366  -15.4074   27.8472 N   0  0  0  0  0  0  0  0  0  0  0  0
    2.0652  -14.8263   27.9424 C   0  0  0  0  0  0  0  0  0  0  0  0
    1.6801  -13.6910   26.7227 S   0  0  0  0  0  0  0  0  0  0  0  0
    3.5368  -11.4774   22.9309 C   0  0  0  0  0  0  0  0  0  0  0  0
    4.7199  -10.6295   23.1257 N   0  0  0  0  0  0  0  0  0  0  0  0
    5.1728   -9.9891   21.8809 C   0  0  0  0  0  0  0  0  0  0  0  0
    5.0564   -8.4877   22.0800 C   0  0  0  0  0  0  0  0  0  0  0  0
    5.2600   -8.3500   23.5651 C   0  0  2  0  0  0  0  0  0  0  0  0
    6.5794   -8.4016   23.8567 F   0  0  0  0  0  0  0  0  0  0  0  0
    4.5225   -9.5521   24.1047 C   0  0  0  0  0  0  0  0  0  0  0  0
  2  1  1  1
  2  3  1  0
  3  4  1  0
  4  5  2  0
  5  6  1  0
  6  7  2  0
  7  8  1  0
  2  9  1  0
  9 10  1  0
 10 11  1  0
 11 12  1  0
 12 13  1  0
 13 14  1  6
 13 15  1  0
  8  4  1  0
 15 10  1  0
M  END
>  <original SMILES>  (7) 
N[C@H](Cc1cncs1)CN1CC[C@H](F)C1

>  <original ID>  (7) 
PCYGYXDHHYJWIB-DTWKUNHWSA-N

>  <inchikey>  (7) 
PCYGYXDHHYJWIB-DTWKUNHWSA-N

>  <fragmenstein_error>  (7) 
None

>  <ref_mols>  (7) 
x0414a,x0502c

>  <HIPPO Pose ID>  (7) 
9366

>  <fragmenstein_mode>  (7) 
expansion

>  <fragmenstein_outcome>  (7) 
acceptable

>  <name>  (7) 
PCYGYXDHHYJWIB-DTWKUNHWSA-N

>  <scratch_subdir>  (7) 
/opt/xchem-fragalysis-2/maxwin/BulkDock/SCRATCH/301900/C1257-P46

>  <distance_score>  (7) 
0.833326

>  <ref_pdb>  (7) 
x0502c

>  <alias>  (7) 
None

>  <HIPPO Compound ID>  (7) 
1257

>  <SLURM_JOB_ID>  (7) 
301900

>  <tags>  (7) 
BulkDock Fragalysis export;Fragmenstein placed

>  <csv_name>  (7) 
CpKRS_iter1_knitwork_pure_split1000_batch009.csv

>  <energy_score>  (7) 
-71.40314

>  <score_inspiration>  (7) 
0.54208

>  <fragmenstein_runtime>  (7) 
2.061391

$$$$
9368
     RDKit          3D

 15 16  0  0  0  0  0  0  0  0999 V2000
    6.2216   -7.9895   24.3491 C   0  0  0  0  0  0  0  0  0  0  0  0
    5.1642   -8.4297   23.3530 C   0  0  1  0  0  0  0  0  0  0  0  0
    5.7748   -9.0498   22.1054 C   0  0  0  0  0  0  0  0  0  0  0  0
    4.9348  -10.2744   21.8506 C   0  0  0  0  0  0  0  0  0  0  0  0
    4.5567  -10.7091   23.1974 N   0  0  0  0  0  0  0  0  0  0  0  0
    3.4264  -11.6429   23.1039 C   0  0  0  0  0  0  0  0  0  0  0  0
    2.8427  -12.1599   24.4427 C   0  0  1  0  0  0  0  0  0  0  0  0
    1.4659  -12.6564   24.1699 N   0  0  0  0  0  0  0  0  0  0  0  0
    3.7756  -13.2041   25.0964 C   0  0  0  0  0  0  0  0  0  0  0  0
    3.2331  -13.9803   26.2741 C   0  0  0  0  0  0  0  0  0  0  0  0
    3.8366  -15.0571   26.9027 C   0  0  0  0  0  0  0  0  0  0  0  0
    3.1940  -15.5581   28.0197 N   0  0  0  0  0  0  0  0  0  0  0  0
    2.0840  -14.8856   28.2078 C   0  0  0  0  0  0  0  0  0  0  0  0
    1.7334  -13.6701   27.0591 S   0  0  0  0  0  0  0  0  0  0  0  0
    4.2134   -9.4826   23.9141 C   0  0  0  0  0  0  0  0  0  0  0  0
  2  1  1  1
  2  3  1  0
  3  4  1  0
  4  5  1  0
  5  6  1  0
  6  7  1  0
  7  8  1  6
  7  9  1  0
  9 10  1  0
 10 11  2  0
 11 12  1  0
 12 13  2  0
 13 14  1  0
  5 15  1  0
 15  2  1  0
 14 10  1  0
M  END
>  <original SMILES>  (8) 
C[C@H]1CCN(C[C@@H](N)Cc2cncs2)C1

>  <original ID>  (8) 
NYGAVMKMZIGVKL-UWVGGRQHSA-N

>  <inchikey>  (8) 
NYGAVMKMZIGVKL-UWVGGRQHSA-N

>  <fragmenstein_error>  (8) 
None

>  <ref_mols>  (8) 
x0414a,x0502c

>  <HIPPO Pose ID>  (8) 
9368

>  <fragmenstein_mode>  (8) 
expansion

>  <fragmenstein_outcome>  (8) 
acceptable

>  <name>  (8) 
NYGAVMKMZIGVKL-UWVGGRQHSA-N

>  <scratch_subdir>  (8) 
/opt/xchem-fragalysis-2/maxwin/BulkDock/SCRATCH/301900/C1258-P46

>  <distance_score>  (8) 
0.948863

>  <ref_pdb>  (8) 
x0502c

>  <alias>  (8) 
None

>  <HIPPO Compound ID>  (8) 
1258

>  <SLURM_JOB_ID>  (8) 
301900

>  <tags>  (8) 
BulkDock Fragalysis export;Fragmenstein placed

>  <csv_name>  (8) 
CpKRS_iter1_knitwork_pure_split1000_batch009.csv

>  <energy_score>  (8) 
-77.857821

>  <score_inspiration>  (8) 
0.514102

>  <fragmenstein_runtime>  (8) 
2.719226

$$$$
10518
     RDKit          3D

 10 10  0  0  0  0  0  0  0  0999 V2000
    4.8988  -11.5595   22.2330 C   0  0  0  0  0  0  0  0  0  0  0  0
    4.0736  -11.9505   23.4588 C   0  0  2  0  0  0  0  0  0  0  0  0
    4.0092  -10.7699   24.3256 N   0  0  0  0  0  0  0  0  0  0  0  0
    4.6881  -13.1848   24.1423 C   0  0  0  0  0  0  0  0  0  0  0  0
    3.9419  -13.8609   25.2616 C   0  0  0  0  0  0  0  0  0  0  0  0
    2.5737  -13.7063   25.4687 C   0  0  0  0  0  0  0  0  0  0  0  0
    1.9668  -14.3874   26.5208 C   0  0  0  0  0  0  0  0  0  0  0  0
    2.7311  -15.2199   27.3246 C   0  0  0  0  0  0  0  0  0  0  0  0
    4.0801  -15.3301   27.0446 C   0  0  0  0  0  0  0  0  0  0  0  0
    4.7035  -14.6728   26.0443 N   0  0  0  0  0  0  0  0  0  0  0  0
  2  1  1  6
  2  3  1  0
  2  4  1  0
  4  5  1  0
  5  6  2  0
  6  7  1  0
  7  8  2  0
  8  9  1  0
  9 10  2  0
 10  5  1  0
M  END
>  <original SMILES>  (9) 
C[C@H](N)Cc1ccccn1

>  <original ID>  (9) 
OKWKKGILOAMUGL-ZETCQYMHSA-N

>  <inchikey>  (9) 
OKWKKGILOAMUGL-ZETCQYMHSA-N

>  <fragmenstein_error>  (9) 
None

>  <ref_mols>  (9) 
x0414a,x0634b

>  <HIPPO Pose ID>  (9) 
10518

>  <fragmenstein_mode>  (9) 
expansion

>  <fragmenstein_outcome>  (9) 
acceptable

>  <name>  (9) 
OKWKKGILOAMUGL-ZETCQYMHSA-N

>  <scratch_subdir>  (9) 
/opt/xchem-fragalysis-2/maxwin/BulkDock/SCRATCH/304143/C3555-P51

>  <distance_score>  (9) 
0.943468

>  <ref_pdb>  (9) 
x0634b

>  <alias>  (9) 
None

>  <HIPPO Compound ID>  (9) 
3555

>  <SLURM_JOB_ID>  (9) 
304143

>  <tags>  (9) 
BulkDock Fragalysis export;Fragmenstein placed

>  <csv_name>  (9) 
CpKRS_iter1_knitwork_pure_split1000_batch103.csv

>  <energy_score>  (9) 
-7.926724

>  <score_inspiration>  (9) 
0.638507

>  <fragmenstein_runtime>  (9) 
3.859197

$$$$
13891
     RDKit          3D

 23 25  0  0  0  0  0  0  0  0999 V2000
    2.7747    4.9316   46.6814 C   0  0  0  0  0  0  0  0  0  0  0  0
    1.8267    5.4727   45.6416 C   0  0  0  0  0  0  0  0  0  0  0  0
    2.4694    5.7009   44.3796 N   0  0  0  0  0  0  0  0  0  0  0  0
    3.5327    4.8545   43.6188 C   0  0  0  0  0  0  0  0  0  0  0  0
    4.1011    3.8843   43.9418 O   0  0  0  0  0  0  0  0  0  0  0  0
    3.7112    5.4302   42.1840 C   0  0  2  0  0  0  0  0  0  0  0  0
    4.9587    4.8558   41.4820 C   0  0  0  0  0  0  0  0  0  0  0  0
    5.4100    5.5777   40.2086 C   0  0  0  0  0  0  0  0  0  0  0  0
    5.3681    7.0994   40.3138 C   0  0  0  0  0  0  0  0  0  0  0  0
    4.0320    7.4995   40.7460 N   0  0  0  0  0  0  0  0  0  0  0  0
    3.7507    8.8827   40.6750 C   0  0  0  0  0  0  0  0  0  0  0  0
    3.3030    9.4609   41.8190 N   0  0  0  0  0  0  0  0  0  0  0  0
    2.8192   10.7132   41.7673 C   0  0  0  0  0  0  0  0  0  0  0  0
    2.8202   11.4482   40.6085 C   0  0  0  0  0  0  0  0  0  0  0  0
    3.3008   10.9554   39.4586 N   0  0  0  0  0  0  0  0  0  0  0  0
    3.7325    9.6527   39.4864 C   0  0  0  0  0  0  0  0  0  0  0  0
    3.8952    9.1198   38.1330 C   0  0  0  0  0  0  0  0  0  0  0  0
    2.9063    8.2764   37.6052 C   0  0  0  0  0  0  0  0  0  0  0  0
    2.9665    7.8486   36.2830 C   0  0  0  0  0  0  0  0  0  0  0  0
    4.0201    8.2508   35.4760 C   0  0  0  0  0  0  0  0  0  0  0  0
    5.0051    9.1015   35.9711 C   0  0  0  0  0  0  0  0  0  0  0  0
    4.9379    9.5411   37.2940 C   0  0  0  0  0  0  0  0  0  0  0  0
    3.6061    6.9404   42.0421 C   0  0  0  0  0  0  0  0  0  0  0  0
  1  2  1  0
  2  3  1  0
  3  4  1  0
  4  5  2  0
  6  4  1  1
  6  7  1  0
  7  8  1  0
  8  9  1  0
  9 10  1  0
 10 11  1  0
 11 12  2  0
 12 13  1  0
 13 14  2  0
 14 15  1  0
 15 16  2  0
 16 17  1  0
 17 18  2  0
 18 19  1  0
 19 20  2  0
 20 21  1  0
 21 22  2  0
 10 23  1  0
 23  6  1  0
 16 11  1  0
 22 17  1  0
M  END
>  <original SMILES>  (10) 
CCNC(=O)[C@@H]1CCCN(c2nccnc2-c2ccccc2)C1

>  <original ID>  (10) 
NYHRRDRZJJGKRJ-OAHLLOKOSA-N

>  <inchikey>  (10) 
NYHRRDRZJJGKRJ-OAHLLOKOSA-N

>  <fragmenstein_error>  (10) 
None

>  <ref_mols>  (10) 
x0456a,x0492b

>  <HIPPO Pose ID>  (10) 
13891

>  <fragmenstein_mode>  (10) 
expansion

>  <fragmenstein_outcome>  (10) 
acceptable

>  <name>  (10) 
NYHRRDRZJJGKRJ-OAHLLOKOSA-N

>  <scratch_subdir>  (10) 
/opt/xchem-fragalysis-2/maxwin/BulkDock/SCRATCH/304094/C14108-P20

>  <distance_score>  (10) 
0.723252

>  <ref_pdb>  (10) 
x0456a

>  <alias>  (10) 
None

>  <HIPPO Compound ID>  (10) 
14108

>  <SLURM_JOB_ID>  (10) 
304094

>  <tags>  (10) 
BulkDock Fragalysis export;Fragmenstein placed

>  <csv_name>  (10) 
CpKRS_iter1_knitwork_pure_split1000_batch054.csv

>  <energy_score>  (10) 
-12.703363

>  <score_inspiration>  (10) 
0.279104

>  <fragmenstein_runtime>  (10) 
29.434076

$$$$
16102
     RDKit          3D

 17 18  0  0  0  0  0  0  0  0999 V2000
    5.6960   -7.0081   24.3648 C   0  0  0  0  0  0  0  0  0  0  0  0
    5.0476   -8.2115   23.6942 C   0  0  2  0  0  0  0  0  0  0  0  0
    3.5903   -8.2415   23.9445 N   0  0  0  0  0  0  0  0  0  0  0  0
    5.7741   -9.4322   24.2316 C   0  0  0  0  0  0  0  0  0  0  0  0
    5.2724  -10.7183   23.6705 C   0  0  0  0  0  0  0  0  0  0  0  0
    5.3477  -10.9953   22.3338 C   0  0  0  0  0  0  0  0  0  0  0  0
    4.9114  -12.2407   21.9827 C   0  0  0  0  0  0  0  0  0  0  0  0
    4.4060  -13.1497   22.8289 N   0  0  0  0  0  0  0  0  0  0  0  0
    4.3731  -12.7959   24.1165 C   0  0  0  0  0  0  0  0  0  0  0  0
    3.8490  -13.7252   25.1193 C   0  0  0  0  0  0  0  0  0  0  0  0
    4.7820  -14.4825   25.7795 N   0  0  0  0  0  0  0  0  0  0  0  0
    4.3385  -15.2724   26.7794 C   0  0  0  0  0  0  0  0  0  0  0  0
    3.0154  -15.3564   27.1753 C   0  0  0  0  0  0  0  0  0  0  0  0
    2.0789  -14.5788   26.5049 C   0  0  0  0  0  0  0  0  0  0  0  0
    2.4945  -13.7516   25.4614 C   0  0  0  0  0  0  0  0  0  0  0  0
    1.1832  -12.6851   24.5960 Br  0  0  0  0  0  0  0  0  0  0  0  0
    4.7641  -11.5879   24.5563 N   0  0  0  0  0  0  0  0  0  0  0  0
  2  1  1  1
  2  3  1  0
  2  4  1  0
  4  5  1  0
  5  6  2  0
  6  7  1  0
  7  8  2  0
  8  9  1  0
  9 10  1  0
 10 11  2  0
 11 12  1  0
 12 13  2  0
 13 14  1  0
 14 15  2  0
 15 16  1  0
  9 17  2  0
 17  5  1  0
 15 10  1  0
M  END
>  <original SMILES>  (11) 
C[C@H](N)Cc1ccnc(-c2ncccc2Br)n1

>  <original ID>  (11) 
SSSYFELTSAMCRT-QMMMGPOBSA-N

>  <inchikey>  (11) 
SSSYFELTSAMCRT-QMMMGPOBSA-N

>  <fragmenstein_error>  (11) 
None

>  <ref_mols>  (11) 
x0414a,x0634b

>  <HIPPO Pose ID>  (11) 
16102

>  <fragmenstein_mode>  (11) 
expansion

>  <fragmenstein_outcome>  (11) 
acceptable

>  <name>  (11) 
SSSYFELTSAMCRT-QMMMGPOBSA-N

>  <scratch_subdir>  (11) 
/opt/xchem-fragalysis-2/maxwin/BulkDock/SCRATCH/304143/C3614-P51

>  <distance_score>  (11) 
0.669612

>  <ref_pdb>  (11) 
x0634b

>  <alias>  (11) 
None

>  <HIPPO Compound ID>  (11) 
3614

>  <SLURM_JOB_ID>  (11) 
304143

>  <tags>  (11) 
BulkDock Fragalysis export;Fragmenstein placed

>  <csv_name>  (11) 
CpKRS_iter1_knitwork_pure_split1000_batch103.csv

>  <energy_score>  (11) 
-35.441767

>  <score_inspiration>  (11) 
0.546766

>  <fragmenstein_runtime>  (11) 
5.080982

$$$$
16284
     RDKit          3D

 17 18  0  0  0  0  0  0  0  0999 V2000
    5.7104   -6.9726   24.4455 C   0  0  0  0  0  0  0  0  0  0  0  0
    5.0676   -8.1588   23.7359 C   0  0  2  0  0  0  0  0  0  0  0  0
    3.6225   -8.2362   24.0269 N   0  0  0  0  0  0  0  0  0  0  0  0
    5.8538   -9.3842   24.1742 C   0  0  0  0  0  0  0  0  0  0  0  0
    5.3420  -10.6652   23.6101 C   0  0  0  0  0  0  0  0  0  0  0  0
    5.3596  -10.9190   22.2676 C   0  0  0  0  0  0  0  0  0  0  0  0
    4.9018  -12.1578   21.9152 C   0  0  0  0  0  0  0  0  0  0  0  0
    4.4110  -13.0750   22.7608 N   0  0  0  0  0  0  0  0  0  0  0  0
    4.4546  -12.7521   24.0535 C   0  0  0  0  0  0  0  0  0  0  0  0
    3.9237  -13.6761   25.0581 C   0  0  0  0  0  0  0  0  0  0  0  0
    2.5662  -13.6388   25.3890 C   0  0  0  0  0  0  0  0  0  0  0  0
    2.1120  -14.3728   26.4815 C   0  0  0  0  0  0  0  0  0  0  0  0
    3.0238  -15.1260   27.2062 C   0  0  0  0  0  0  0  0  0  0  0  0
    2.5365  -15.9411   28.6342 Cl  0  0  0  0  0  0  0  0  0  0  0  0
    4.3466  -15.1467   26.7921 C   0  0  0  0  0  0  0  0  0  0  0  0
    4.8248  -14.4394   25.7426 N   0  0  0  0  0  0  0  0  0  0  0  0
    4.8804  -11.5568   24.4995 N   0  0  0  0  0  0  0  0  0  0  0  0
  2  1  1  1
  2  3  1  0
  2  4  1  0
  4  5  1  0
  5  6  2  0
  6  7  1  0
  7  8  2  0
  8  9  1  0
  9 10  1  0
 10 11  2  0
 11 12  1  0
 12 13  2  0
 13 14  1  0
 13 15  1  0
 15 16  2  0
  9 17  2  0
 17  5  1  0
 16 10  1  0
M  END
>  <original SMILES>  (12) 
C[C@H](N)Cc1ccnc(-c2ccc(Cl)cn2)n1

>  <original ID>  (12) 
UJCSGVLOPZMDJD-QMMMGPOBSA-N

>  <inchikey>  (12) 
UJCSGVLOPZMDJD-QMMMGPOBSA-N

>  <fragmenstein_error>  (12) 
None

>  <ref_mols>  (12) 
x0414a,x0634b

>  <HIPPO Pose ID>  (12) 
16284

>  <fragmenstein_mode>  (12) 
expansion

>  <fragmenstein_outcome>  (12) 
acceptable

>  <name>  (12) 
UJCSGVLOPZMDJD-QMMMGPOBSA-N

>  <scratch_subdir>  (12) 
/opt/xchem-fragalysis-2/maxwin/BulkDock/SCRATCH/304143/C3616-P51

>  <distance_score>  (12) 
0.658834

>  <ref_pdb>  (12) 
x0634b

>  <alias>  (12) 
None

>  <HIPPO Compound ID>  (12) 
3616

>  <SLURM_JOB_ID>  (12) 
304143

>  <tags>  (12) 
BulkDock Fragalysis export;Fragmenstein placed

>  <csv_name>  (12) 
CpKRS_iter1_knitwork_pure_split1000_batch103.csv

>  <energy_score>  (12) 
-10.562826

>  <score_inspiration>  (12) 
0.640891

>  <fragmenstein_runtime>  (12) 
4.916618

$$$$
16508
     RDKit          3D

 17 18  0  0  0  0  0  0  0  0999 V2000
    5.5185   -7.2126   24.3876 C   0  0  0  0  0  0  0  0  0  0  0  0
    4.7145   -8.5070   24.3096 C   0  0  1  0  0  0  0  0  0  0  0  0
    3.2637   -8.2350   24.3040 N   0  0  0  0  0  0  0  0  0  0  0  0
    5.0721   -9.2300   23.0214 C   0  0  0  0  0  0  0  0  0  0  0  0
    4.8218  -10.7141   23.0269 C   0  0  0  0  0  0  0  0  0  0  0  0
    5.3193  -11.3935   21.9468 C   0  0  0  0  0  0  0  0  0  0  0  0
    5.3674  -12.7469   22.0718 C   0  0  0  0  0  0  0  0  0  0  0  0
    4.8685  -13.4166   23.1023 N   0  0  0  0  0  0  0  0  0  0  0  0
    4.3148  -12.6966   24.0765 C   0  0  0  0  0  0  0  0  0  0  0  0
    3.7543  -13.4624   25.1909 C   0  0  0  0  0  0  0  0  0  0  0  0
    2.4361  -13.2644   25.6010 C   0  0  0  0  0  0  0  0  0  0  0  0
    1.9479  -13.9994   26.6749 C   0  0  0  0  0  0  0  0  0  0  0  0
    2.7937  -14.9018   27.3046 C   0  0  0  0  0  0  0  0  0  0  0  0
    2.2433  -15.7809   28.8659 Br  0  0  0  0  0  0  0  0  0  0  0  0
    4.0783  -15.0741   26.8208 C   0  0  0  0  0  0  0  0  0  0  0  0
    4.5808  -14.3752   25.7853 N   0  0  0  0  0  0  0  0  0  0  0  0
    4.2630  -11.3407   24.0854 N   0  0  0  0  0  0  0  0  0  0  0  0
  2  1  1  6
  2  3  1  0
  2  4  1  0
  4  5  1  0
  5  6  2  0
  6  7  1  0
  7  8  2  0
  8  9  1  0
  9 10  1  0
 10 11  2  0
 11 12  1  0
 12 13  2  0
 13 14  1  0
 13 15  1  0
 15 16  2  0
  9 17  2  0
 17  5  1  0
 16 10  1  0
M  END
>  <original SMILES>  (13) 
C[C@@H](N)Cc1ccnc(-c2ccc(Br)cn2)n1

>  <original ID>  (13) 
KHZCRBCBTIIALF-MRVPVSSYSA-N

>  <inchikey>  (13) 
KHZCRBCBTIIALF-MRVPVSSYSA-N

>  <fragmenstein_error>  (13) 
None

>  <ref_mols>  (13) 
x0414a,x0634b

>  <HIPPO Pose ID>  (13) 
16508

>  <fragmenstein_mode>  (13) 
expansion

>  <fragmenstein_outcome>  (13) 
acceptable

>  <name>  (13) 
KHZCRBCBTIIALF-MRVPVSSYSA-N

>  <scratch_subdir>  (13) 
/opt/xchem-fragalysis-2/maxwin/BulkDock/SCRATCH/304143/C3618-P51

>  <distance_score>  (13) 
0.817955

>  <ref_pdb>  (13) 
x0634b

>  <alias>  (13) 
None

>  <HIPPO Compound ID>  (13) 
3618

>  <SLURM_JOB_ID>  (13) 
304143

>  <tags>  (13) 
BulkDock Fragalysis export;Fragmenstein placed

>  <csv_name>  (13) 
CpKRS_iter1_knitwork_pure_split1000_batch103.csv

>  <energy_score>  (13) 
-13.659148

>  <score_inspiration>  (13) 
0.600645

>  <fragmenstein_runtime>  (13) 
4.909985

$$$$
16615
     RDKit          3D

 23 25  0  0  0  0  0  0  0  0999 V2000
    2.7747    4.9316   46.6814 C   0  0  0  0  0  0  0  0  0  0  0  0
    1.8267    5.4727   45.6416 C   0  0  0  0  0  0  0  0  0  0  0  0
    2.4694    5.7009   44.3796 N   0  0  0  0  0  0  0  0  0  0  0  0
    3.5327    4.8545   43.6188 C   0  0  0  0  0  0  0  0  0  0  0  0
    4.1011    3.8843   43.9418 O   0  0  0  0  0  0  0  0  0  0  0  0
    3.7112    5.4302   42.1840 C   0  0  2  0  0  0  0  0  0  0  0  0
    4.9587    4.8558   41.4820 C   0  0  0  0  0  0  0  0  0  0  0  0
    5.4100    5.5777   40.2086 C   0  0  0  0  0  0  0  0  0  0  0  0
    5.3681    7.0994   40.3138 C   0  0  0  0  0  0  0  0  0  0  0  0
    4.0320    7.4995   40.7460 N   0  0  0  0  0  0  0  0  0  0  0  0
    3.7507    8.8827   40.6750 C   0  0  0  0  0  0  0  0  0  0  0  0
    3.3030    9.4609   41.8190 N   0  0  0  0  0  0  0  0  0  0  0  0
    2.8192   10.7132   41.7673 C   0  0  0  0  0  0  0  0  0  0  0  0
    2.8202   11.4482   40.6085 C   0  0  0  0  0  0  0  0  0  0  0  0
    3.3008   10.9554   39.4586 N   0  0  0  0  0  0  0  0  0  0  0  0
    3.7325    9.6527   39.4864 C   0  0  0  0  0  0  0  0  0  0  0  0
    3.8952    9.1198   38.1330 C   0  0  0  0  0  0  0  0  0  0  0  0
    2.9063    8.2764   37.6052 C   0  0  0  0  0  0  0  0  0  0  0  0
    2.9665    7.8486   36.2830 C   0  0  0  0  0  0  0  0  0  0  0  0
    4.0201    8.2508   35.4760 C   0  0  0  0  0  0  0  0  0  0  0  0
    5.0051    9.1015   35.9711 C   0  0  0  0  0  0  0  0  0  0  0  0
    4.9379    9.5411   37.2940 C   0  0  0  0  0  0  0  0  0  0  0  0
    3.6061    6.9404   42.0421 C   0  0  0  0  0  0  0  0  0  0  0  0
  1  2  1  0
  2  3  1  0
  3  4  1  0
  4  5  2  0
  6  4  1  1
  6  7  1  0
  7  8  1  0
  8  9  1  0
  9 10  1  0
 10 11  1  0
 11 12  2  0
 12 13  1  0
 13 14  2  0
 14 15  1  0
 15 16  2  0
 16 17  1  0
 17 18  2  0
 18 19  1  0
 19 20  2  0
 20 21  1  0
 21 22  2  0
 10 23  1  0
 23  6  1  0
 16 11  1  0
 22 17  1  0
M  END
>  <original SMILES>  (14) 
CCNC(=O)[C@@H]1CCCN(c2nccnc2-c2ccccc2)C1

>  <original ID>  (14) 
NYHRRDRZJJGKRJ-OAHLLOKOSA-N

>  <inchikey>  (14) 
NYHRRDRZJJGKRJ-OAHLLOKOSA-N

>  <fragmenstein_error>  (14) 
None

>  <ref_mols>  (14) 
x0456a,x0492a

>  <HIPPO Pose ID>  (14) 
16615

>  <fragmenstein_mode>  (14) 
expansion

>  <fragmenstein_outcome>  (14) 
acceptable

>  <name>  (14) 
NYHRRDRZJJGKRJ-OAHLLOKOSA-N

>  <scratch_subdir>  (14) 
/opt/xchem-fragalysis-2/maxwin/BulkDock/SCRATCH/304091/C14108-P20

>  <distance_score>  (14) 
0.723252

>  <ref_pdb>  (14) 
x0456a

>  <alias>  (14) 
None

>  <HIPPO Compound ID>  (14) 
14108

>  <SLURM_JOB_ID>  (14) 
304091

>  <tags>  (14) 
BulkDock Fragalysis export;Fragmenstein placed

>  <csv_name>  (14) 
CpKRS_iter1_knitwork_pure_split1000_batch051.csv

>  <energy_score>  (14) 
-12.703363

>  <score_inspiration>  (14) 
0.279104

>  <fragmenstein_runtime>  (14) 
30.091926

$$$$
16976
     RDKit          3D

 17 18  0  0  0  0  0  0  0  0999 V2000
    4.6245  -15.9244   27.3594 C   0  0  0  0  0  0  0  0  0  0  0  0
    3.8085  -14.9031   26.6556 C   0  0  0  0  0  0  0  0  0  0  0  0
    2.4520  -14.7948   26.9440 C   0  0  0  0  0  0  0  0  0  0  0  0
    1.6952  -13.8775   26.2348 C   0  0  0  0  0  0  0  0  0  0  0  0
    2.3168  -13.1109   25.2579 C   0  0  0  0  0  0  0  0  0  0  0  0
    3.6832  -13.2793   25.0240 C   0  0  0  0  0  0  0  0  0  0  0  0
    4.3584  -12.4670   24.0137 C   0  0  0  0  0  0  0  0  0  0  0  0
    4.3894  -12.9387   22.7644 N   0  0  0  0  0  0  0  0  0  0  0  0
    4.9207  -12.1285   21.8470 C   0  0  0  0  0  0  0  0  0  0  0  0
    5.3681  -10.8635   22.0814 C   0  0  0  0  0  0  0  0  0  0  0  0
    5.3114  -10.4617   23.3875 C   0  0  0  0  0  0  0  0  0  0  0  0
    5.8982   -9.1352   23.7526 C   0  0  0  0  0  0  0  0  0  0  0  0
    5.0224   -8.2983   24.6757 C   0  0  1  0  0  0  0  0  0  0  0  0
    5.6351   -6.9067   24.7423 C   0  0  0  0  0  0  0  0  0  0  0  0
    3.6117   -8.2134   24.2388 N   0  0  0  0  0  0  0  0  0  0  0  0
    4.8050  -11.2406   24.3639 N   0  0  0  0  0  0  0  0  0  0  0  0
    4.4408  -14.1708   25.7127 N   0  0  0  0  0  0  0  0  0  0  0  0
  1  2  1  0
  2  3  2  0
  3  4  1  0
  4  5  2  0
  5  6  1  0
  6  7  1  0
  7  8  2  0
  8  9  1  0
  9 10  2  0
 10 11  1  0
 11 12  1  0
 12 13  1  0
 13 14  1  6
 13 15  1  0
 11 16  2  0
  6 17  2  0
 17  2  1  0
 16  7  1  0
M  END
>  <original SMILES>  (15) 
Cc1cccc(-c2nccc(C[C@@H](C)N)n2)n1

>  <original ID>  (15) 
RIRTWUYARZZKGA-SECBINFHSA-N

>  <inchikey>  (15) 
RIRTWUYARZZKGA-SECBINFHSA-N

>  <fragmenstein_error>  (15) 
None

>  <ref_mols>  (15) 
x0414a,x0634b

>  <HIPPO Pose ID>  (15) 
16976

>  <fragmenstein_mode>  (15) 
expansion

>  <fragmenstein_outcome>  (15) 
acceptable

>  <name>  (15) 
RIRTWUYARZZKGA-SECBINFHSA-N

>  <scratch_subdir>  (15) 
/opt/xchem-fragalysis-2/maxwin/BulkDock/SCRATCH/304143/C3623-P51

>  <distance_score>  (15) 
0.897972

>  <ref_pdb>  (15) 
x0634b

>  <alias>  (15) 
None

>  <HIPPO Compound ID>  (15) 
3623

>  <SLURM_JOB_ID>  (15) 
304143

>  <tags>  (15) 
BulkDock Fragalysis export;Fragmenstein placed

>  <csv_name>  (15) 
CpKRS_iter1_knitwork_pure_split1000_batch103.csv

>  <energy_score>  (15) 
-14.581079

>  <score_inspiration>  (15) 
0.52052

>  <fragmenstein_runtime>  (15) 
6.017352

$$$$
17958
     RDKit          3D

 15 16  0  0  0  0  0  0  0  0999 V2000
    3.4507    5.8107   41.4796 C   0  0  0  0  0  0  0  0  0  0  0  0
    4.9425    5.5615   41.4600 C   0  0  1  0  0  0  0  0  0  0  0  0
    5.3989    4.6715   42.5529 N   0  0  0  0  0  0  0  0  0  0  0  0
    4.9081    3.3158   42.4730 C   0  0  0  0  0  0  0  0  0  0  0  0
    4.3341    2.6688   43.7267 C   0  0  0  0  0  0  0  0  0  0  0  0
    3.6523    3.5022   44.7760 C   0  0  0  0  0  0  0  0  0  0  0  0
    2.7843    4.5632   44.6125 C   0  0  0  0  0  0  0  0  0  0  0  0
    2.1244    5.0738   46.1078 S   0  0  0  0  0  0  0  0  0  0  0  0
    2.9598    3.7951   46.8697 C   0  0  0  0  0  0  0  0  0  0  0  0
    3.7501    3.0751   46.1020 N   0  0  0  0  0  0  0  0  0  0  0  0
    5.6367    5.2180   40.1238 C   0  0  1  0  0  0  0  0  0  0  0  0
    5.0133    5.7054   38.8484 C   0  0  0  0  0  0  0  0  0  0  0  0
    5.3452    7.1642   38.7702 C   0  0  0  0  0  0  0  0  0  0  0  0
    6.6174    7.2499   39.5766 C   0  0  0  0  0  0  0  0  0  0  0  0
    6.8880    5.9345   40.1098 O   0  0  0  0  0  0  0  0  0  0  0  0
  2  1  1  6
  2  3  1  0
  3  4  1  0
  4  5  1  0
  5  6  1  0
  6  7  2  0
  7  8  1  0
  8  9  1  0
  9 10  2  0
  2 11  1  0
 11 12  1  6
 12 13  1  0
 13 14  1  0
 14 15  1  0
 10  6  1  0
 15 11  1  0
M  END
>  <original SMILES>  (16) 
C[C@@H](NCCc1cscn1)[C@H]1CCCO1

>  <original ID>  (16) 
VKZZAYWZJFCRDH-MWLCHTKSSA-N

>  <inchikey>  (16) 
VKZZAYWZJFCRDH-MWLCHTKSSA-N

>  <fragmenstein_error>  (16) 
None

>  <ref_mols>  (16) 
x0407c,x0504c

>  <HIPPO Pose ID>  (16) 
17958

>  <fragmenstein_mode>  (16) 
expansion

>  <fragmenstein_outcome>  (16) 
acceptable

>  <name>  (16) 
VKZZAYWZJFCRDH-MWLCHTKSSA-N

>  <scratch_subdir>  (16) 
/opt/xchem-fragalysis-2/maxwin/BulkDock/SCRATCH/304044/C26908-P3

>  <distance_score>  (16) 
0.984738

>  <ref_pdb>  (16) 
x0407c

>  <alias>  (16) 
None

>  <HIPPO Compound ID>  (16) 
26908

>  <SLURM_JOB_ID>  (16) 
304044

>  <tags>  (16) 
BulkDock Fragalysis export;Fragmenstein placed

>  <csv_name>  (16) 
CpKRS_iter1_knitwork_pure_split1000_batch004.csv

>  <energy_score>  (16) 
-53.99762

>  <score_inspiration>  (16) 
0.650447

>  <fragmenstein_runtime>  (16) 
3.830639

$$$$
18169
     RDKit          3D

 15 16  0  0  0  0  0  0  0  0999 V2000
    4.2288    5.5106   42.0171 C   0  0  0  0  0  0  0  0  0  0  0  0
    5.3708    4.5206   41.7735 C   0  0  1  0  0  0  0  0  0  0  0  0
    5.0742    3.1151   42.0490 N   0  0  0  0  0  0  0  0  0  0  0  0
    3.9615    2.7964   42.9459 C   0  0  0  0  0  0  0  0  0  0  0  0
    4.3306    2.8185   44.4202 C   0  0  0  0  0  0  0  0  0  0  0  0
    3.3624    3.5148   45.3228 C   0  0  0  0  0  0  0  0  0  0  0  0
    2.4938    4.5505   45.0277 C   0  0  0  0  0  0  0  0  0  0  0  0
    1.7298    5.1244   46.4414 S   0  0  0  0  0  0  0  0  0  0  0  0
    2.5248    3.9029   47.3293 C   0  0  0  0  0  0  0  0  0  0  0  0
    3.3388    3.1228   46.6521 N   0  0  0  0  0  0  0  0  0  0  0  0
    6.1218    4.8154   40.4542 C   0  0  1  0  0  0  0  0  0  0  0  0
    5.2628    4.7912   39.2251 C   0  0  0  0  0  0  0  0  0  0  0  0
    4.9657    6.2394   38.9221 C   0  0  0  0  0  0  0  0  0  0  0  0
    6.1836    6.9395   39.4595 C   0  0  0  0  0  0  0  0  0  0  0  0
    6.6656    6.1384   40.5330 O   0  0  0  0  0  0  0  0  0  0  0  0
  2  1  1  6
  2  3  1  0
  3  4  1  0
  4  5  1  0
  5  6  1  0
  6  7  2  0
  7  8  1  0
  8  9  1  0
  9 10  2  0
  2 11  1  0
 11 12  1  6
 12 13  1  0
 13 14  1  0
 14 15  1  0
 10  6  1  0
 15 11  1  0
M  END
>  <original SMILES>  (17) 
C[C@@H](NCCc1cscn1)[C@H]1CCCO1

>  <original ID>  (17) 
VKZZAYWZJFCRDH-MWLCHTKSSA-N

>  <inchikey>  (17) 
VKZZAYWZJFCRDH-MWLCHTKSSA-N

>  <fragmenstein_error>  (17) 
None

>  <ref_mols>  (17) 
x0407c,x0504c

>  <HIPPO Pose ID>  (17) 
18169

>  <fragmenstein_mode>  (17) 
expansion

>  <fragmenstein_outcome>  (17) 
acceptable

>  <name>  (17) 
VKZZAYWZJFCRDH-MWLCHTKSSA-N

>  <scratch_subdir>  (17) 
/opt/xchem-fragalysis-2/maxwin/BulkDock/SCRATCH/304044/C26908-P47

>  <distance_score>  (17) 
0.733714

>  <ref_pdb>  (17) 
x0504c

>  <alias>  (17) 
None

>  <HIPPO Compound ID>  (17) 
26908

>  <SLURM_JOB_ID>  (17) 
304044

>  <tags>  (17) 
BulkDock Fragalysis export;Fragmenstein placed

>  <csv_name>  (17) 
CpKRS_iter1_knitwork_pure_split1000_batch004.csv

>  <energy_score>  (17) 
-60.858413

>  <score_inspiration>  (17) 
0.651819

>  <fragmenstein_runtime>  (17) 
5.51303

$$$$
18338
     RDKit          3D

 15 16  0  0  0  0  0  0  0  0999 V2000
    4.4618    2.0696   43.2657 C   0  0  0  0  0  0  0  0  0  0  0  0
    4.6230    3.5375   43.5964 C   0  0  1  0  0  0  0  0  0  0  0  0
    4.7198    4.4900   42.4686 N   0  0  0  0  0  0  0  0  0  0  0  0
    5.6850    4.1283   41.4039 C   0  0  2  0  0  0  0  0  0  0  0  0
    7.0520    3.6383   41.8877 C   0  0  0  0  0  0  0  0  0  0  0  0
    5.9191    5.1796   40.2899 C   0  0  1  0  0  0  0  0  0  0  0  0
    4.7154    5.4971   39.4426 C   0  0  0  0  0  0  0  0  0  0  0  0
    5.1631    6.7503   38.7381 C   0  0  0  0  0  0  0  0  0  0  0  0
    5.9697    7.4468   39.8144 C   0  0  0  0  0  0  0  0  0  0  0  0
    6.3401    6.4485   40.7773 O   0  0  0  0  0  0  0  0  0  0  0  0
    3.6351    4.0155   44.6446 C   0  0  0  0  0  0  0  0  0  0  0  0
    2.7559    5.0823   44.5670 C   0  0  0  0  0  0  0  0  0  0  0  0
    1.9028    5.2759   46.0406 S   0  0  0  0  0  0  0  0  0  0  0  0
    2.7470    3.9349   46.6838 C   0  0  0  0  0  0  0  0  0  0  0  0
    3.6196    3.3635   45.8829 N   0  0  0  0  0  0  0  0  0  0  0  0
  2  1  1  6
  2  3  1  0
  3  4  1  0
  4  5  1  1
  4  6  1  0
  6  7  1  1
  7  8  1  0
  8  9  1  0
  9 10  1  0
  2 11  1  0
 11 12  2  0
 12 13  1  0
 13 14  1  0
 14 15  2  0
 10  6  1  0
 15 11  1  0
M  END
>  <original SMILES>  (18) 
C[C@@H](N[C@H](C)[C@H]1CCCO1)c1cscn1

>  <original ID>  (18) 
WQWOEWQMCUONAP-FXPVBKGRSA-N

>  <inchikey>  (18) 
WQWOEWQMCUONAP-FXPVBKGRSA-N

>  <fragmenstein_error>  (18) 
None

>  <ref_mols>  (18) 
x0407c,x0504c

>  <HIPPO Pose ID>  (18) 
18338

>  <fragmenstein_mode>  (18) 
expansion

>  <fragmenstein_outcome>  (18) 
acceptable

>  <name>  (18) 
WQWOEWQMCUONAP-FXPVBKGRSA-N

>  <scratch_subdir>  (18) 
/opt/xchem-fragalysis-2/maxwin/BulkDock/SCRATCH/304044/C26909-P3

>  <distance_score>  (18) 
0.97154

>  <ref_pdb>  (18) 
x0407c

>  <alias>  (18) 
None

>  <HIPPO Compound ID>  (18) 
26909

>  <SLURM_JOB_ID>  (18) 
304044

>  <tags>  (18) 
BulkDock Fragalysis export;Fragmenstein placed

>  <csv_name>  (18) 
CpKRS_iter1_knitwork_pure_split1000_batch004.csv

>  <energy_score>  (18) 
-82.117985

>  <score_inspiration>  (18) 
0.616398

>  <fragmenstein_runtime>  (18) 
4.422257

$$$$
20221
     RDKit          3D

 23 24  0  0  0  0  0  0  0  0999 V2000
   -3.1719    8.5857   36.2748 C   0  0  0  0  0  0  0  0  0  0  0  0
   -2.0375    8.8513   37.1972 C   0  0  0  0  0  0  0  0  0  0  0  0
   -0.7979    8.4746   36.9799 N   0  0  0  0  0  0  0  0  0  0  0  0
    0.0166    8.7736   38.0801 C   0  0  0  0  0  0  0  0  0  0  0  0
    1.4250    8.2807   38.1191 C   0  0  0  0  0  0  0  0  0  0  0  0
    1.7342    7.4323   37.3815 O   0  0  0  0  0  0  0  0  0  0  0  0
    2.2199    8.9567   39.2537 N   0  0  0  0  0  0  0  0  0  0  0  0
    3.5344    8.6648   39.7838 C   0  0  1  0  0  0  0  0  0  0  0  0
    4.3099    9.9275   40.1411 C   0  0  0  0  0  0  0  0  0  0  0  0
    3.4356    7.6817   40.9689 C   0  0  0  0  0  0  0  0  0  0  0  0
    2.1843    7.7856   41.8630 C   0  0  2  0  0  0  0  0  0  0  0  0
    2.0294    9.1509   42.5270 C   0  0  0  0  0  0  0  0  0  0  0  0
    2.1656    6.7673   42.8957 N   0  0  0  0  0  0  0  0  0  0  0  0
    3.2156    5.7102   43.2756 C   0  0  0  0  0  0  0  0  0  0  0  0
    4.2293    5.4384   42.7715 O   0  0  0  0  0  0  0  0  0  0  0  0
    2.8835    5.0056   44.5459 C   0  0  0  0  0  0  0  0  0  0  0  0
    2.1087    5.5691   45.5629 C   0  0  0  0  0  0  0  0  0  0  0  0
    1.9291    4.8715   46.7492 C   0  0  0  0  0  0  0  0  0  0  0  0
    2.5814    3.6631   46.9017 C   0  0  0  0  0  0  0  0  0  0  0  0
    3.3528    3.0896   45.9563 N   0  0  0  0  0  0  0  0  0  0  0  0
    3.4789    3.7703   44.7927 C   0  0  0  0  0  0  0  0  0  0  0  0
   -0.6610    9.4413   39.0891 C   0  0  0  0  0  0  0  0  0  0  0  0
   -2.3063    9.6810   38.6709 S   0  0  0  0  0  0  0  0  0  0  0  0
  1  2  1  0
  2  3  2  0
  3  4  1  0
  4  5  1  0
  5  6  2  0
  5  7  1  0
  7  8  1  0
  8  9  1  1
  8 10  1  0
 10 11  1  0
 11 12  1  1
 11 13  1  0
 13 14  1  0
 14 15  2  0
 14 16  1  0
 16 17  2  0
 17 18  1  0
 18 19  2  0
 19 20  1  0
 20 21  2  0
  4 22  2  0
 22 23  1  0
 23  2  1  0
 21 16  1  0
M  END
>  <original SMILES>  (19) 
Cc1nc(C(=O)N[C@@H](C)C[C@H](C)NC(=O)c2cccnc2)cs1

>  <original ID>  (19) 
LJNJGAQNWQLJOI-QWRGUYRKSA-N

>  <inchikey>  (19) 
LJNJGAQNWQLJOI-QWRGUYRKSA-N

>  <fragmenstein_error>  (19) 
None

>  <ref_mols>  (19) 
x0504c,x0634b

>  <HIPPO Pose ID>  (19) 
20221

>  <fragmenstein_mode>  (19) 
expansion

>  <fragmenstein_outcome>  (19) 
acceptable

>  <name>  (19) 
LJNJGAQNWQLJOI-QWRGUYRKSA-N

>  <scratch_subdir>  (19) 
/opt/xchem-fragalysis-2/maxwin/BulkDock/SCRATCH/304116/C8903-P47

>  <distance_score>  (19) 
0.861394

>  <ref_pdb>  (19) 
x0504c

>  <alias>  (19) 
None

>  <HIPPO Compound ID>  (19) 
8903

>  <SLURM_JOB_ID>  (19) 
304116

>  <tags>  (19) 
BulkDock Fragalysis export;Fragmenstein placed

>  <csv_name>  (19) 
CpKRS_iter1_knitwork_pure_split1000_batch076.csv

>  <energy_score>  (19) 
-21.771481

>  <score_inspiration>  (19) 
0.378414

>  <fragmenstein_runtime>  (19) 
9.444816

$$$$
21783
     RDKit          3D

 11 11  0  0  0  0  0  0  0  0999 V2000
    5.0190  -10.2761   23.8784 C   0  0  0  0  0  0  0  0  0  0  0  0
    4.3208  -11.1476   24.9204 C   0  0  2  0  0  0  0  0  0  0  0  0
    5.0973  -11.0842   26.1717 N   0  0  0  0  0  0  0  0  0  0  0  0
    4.1656  -12.5843   24.3858 C   0  0  0  0  0  0  0  0  0  0  0  0
    3.1935  -13.4200   25.1485 C   0  0  0  0  0  0  0  0  0  0  0  0
    1.9260  -13.0043   25.2979 N   0  0  0  0  0  0  0  0  0  0  0  0
    1.3330  -14.0066   25.9618 N   0  0  0  0  0  0  0  0  0  0  0  0
   -0.0562  -13.8804   26.3181 C   0  0  0  0  0  0  0  0  0  0  0  0
    2.1489  -15.0679   26.1933 C   0  0  0  0  0  0  0  0  0  0  0  0
    3.3825  -14.7029   25.7130 C   0  0  0  0  0  0  0  0  0  0  0  0
    4.8104  -15.6133   25.7335 Cl  0  0  0  0  0  0  0  0  0  0  0  0
  2  1  1  6
  2  3  1  0
  2  4  1  0
  4  5  1  0
  5  6  2  0
  6  7  1  0
  7  8  1  0
  7  9  1  0
  9 10  2  0
 10 11  1  0
 10  5  1  0
M  END
>  <original SMILES>  (20) 
C[C@H](N)Cc1nn(C)cc1Cl

>  <original ID>  (20) 
CSRIBLIVOSAPEL-YFKPBYRVSA-N

>  <inchikey>  (20) 
CSRIBLIVOSAPEL-YFKPBYRVSA-N

>  <fragmenstein_error>  (20) 
None

>  <ref_mols>  (20) 
x0414a,x0421b

>  <HIPPO Pose ID>  (20) 
21783

>  <fragmenstein_mode>  (20) 
expansion

>  <fragmenstein_outcome>  (20) 
acceptable

>  <name>  (20) 
CSRIBLIVOSAPEL-YFKPBYRVSA-N

>  <scratch_subdir>  (20) 
/opt/xchem-fragalysis-2/maxwin/BulkDock/SCRATCH/304053/C7515-P6

>  <distance_score>  (20) 
0.863223

>  <ref_pdb>  (20) 
x0414a

>  <alias>  (20) 
None

>  <HIPPO Compound ID>  (20) 
7515

>  <SLURM_JOB_ID>  (20) 
304053

>  <tags>  (20) 
BulkDock Fragalysis export;Fragmenstein placed

>  <csv_name>  (20) 
CpKRS_iter1_knitwork_pure_split1000_batch013.csv

>  <energy_score>  (20) 
-27.142054

>  <score_inspiration>  (20) 
0.751041

>  <fragmenstein_runtime>  (20) 
3.663446

$$$$
22636
     RDKit          3D

 14 14  0  0  0  0  0  0  0  0999 V2000
    5.8236   -7.6635   23.6173 C   0  0  0  0  0  0  0  0  0  0  0  0
    5.0021   -8.9102   23.9266 C   0  0  2  0  0  0  0  0  0  0  0  0
    3.5713   -8.5376   24.0060 N   0  0  0  0  0  0  0  0  0  0  0  0
    5.5618   -9.5866   25.2115 C   0  0  0  0  0  0  0  0  0  0  0  0
    4.8461  -10.7346   25.7724 N   0  0  0  0  0  0  0  0  0  0  0  0
    3.7570  -10.3816   26.6713 C   0  0  0  0  0  0  0  0  0  0  0  0
    3.2773  -11.5835   27.4807 C   0  0  0  0  0  0  0  0  0  0  0  0
    3.5088  -12.9275   26.7949 C   0  0  0  0  0  0  0  0  0  0  0  0
    3.4988  -12.8288   25.2724 C   0  0  1  0  0  0  0  0  0  0  0  0
    2.0865  -12.5766   24.7293 C   0  0  0  0  0  0  0  0  0  0  0  0
    1.9993  -12.4721   23.2228 C   0  0  0  0  0  0  0  0  0  0  0  0
    1.2833  -13.6072   25.1201 F   0  0  0  0  0  0  0  0  0  0  0  0
    1.5307  -11.4567   25.2490 F   0  0  0  0  0  0  0  0  0  0  0  0
    4.5623  -11.8113   24.8273 C   0  0  0  0  0  0  0  0  0  0  0  0
  2  1  1  1
  2  3  1  0
  2  4  1  0
  4  5  1  0
  5  6  1  0
  6  7  1  0
  7  8  1  0
  8  9  1  0
  9 10  1  1
 10 11  1  0
 10 12  1  0
 10 13  1  0
  9 14  1  0
 14  5  1  0
M  END
>  <original SMILES>  (21) 
C[C@H](N)CN1CCC[C@@H](C(C)(F)F)C1

>  <original ID>  (21) 
MWMQDDIZSCKXTH-DTWKUNHWSA-N

>  <inchikey>  (21) 
MWMQDDIZSCKXTH-DTWKUNHWSA-N

>  <fragmenstein_error>  (21) 
None

>  <ref_mols>  (21) 
x0414a,x0489a

>  <HIPPO Pose ID>  (21) 
22636

>  <fragmenstein_mode>  (21) 
expansion

>  <fragmenstein_outcome>  (21) 
acceptable

>  <name>  (21) 
MWMQDDIZSCKXTH-DTWKUNHWSA-N

>  <scratch_subdir>  (21) 
/opt/xchem-fragalysis-2/maxwin/BulkDock/SCRATCH/304088/C21295-P6

>  <distance_score>  (21) 
0.739905

>  <ref_pdb>  (21) 
x0414a

>  <alias>  (21) 
None

>  <HIPPO Compound ID>  (21) 
21295

>  <SLURM_JOB_ID>  (21) 
304088

>  <tags>  (21) 
BulkDock Fragalysis export;Fragmenstein placed

>  <csv_name>  (21) 
CpKRS_iter1_knitwork_pure_split1000_batch048.csv

>  <energy_score>  (21) 
-28.44543

>  <score_inspiration>  (21) 
0.769437

>  <fragmenstein_runtime>  (21) 
4.803604

$$$$
23805
     RDKit          3D

 19 21  0  0  0  0  0  0  0  0999 V2000
    3.4851    4.3031   43.8186 C   0  0  0  0  0  0  0  0  0  0  0  0
    3.1909    5.5831   44.5756 C   0  0  0  0  0  0  0  0  0  0  0  0
    3.1839    6.7763   43.7645 N   0  0  0  0  0  0  0  0  0  0  0  0
    3.1637    6.9458   42.2313 C   0  0  0  0  0  0  0  0  0  0  0  0
    3.2271    6.1491   41.3816 O   0  0  0  0  0  0  0  0  0  0  0  0
    3.0436    8.3696   41.8446 C   0  0  0  0  0  0  0  0  0  0  0  0
    3.9142    8.9489   40.9285 C   0  0  0  0  0  0  0  0  0  0  0  0
    3.6753   10.2606   40.4958 C   0  0  0  0  0  0  0  0  0  0  0  0
    2.5512   10.9560   40.9504 C   0  0  0  0  0  0  0  0  0  0  0  0
    2.2330   12.2456   40.4850 N   0  0  0  0  0  0  0  0  0  0  0  0
    0.8642   12.6533   40.8555 C   0  0  0  0  0  0  0  0  0  0  0  0
    0.5138   13.7782   39.8912 C   0  0  1  0  0  0  0  0  0  0  0  0
    0.7544   15.1847   40.4358 C   0  0  0  0  0  0  0  0  0  0  0  0
    1.1873   15.9654   39.2068 C   0  0  0  0  0  0  0  0  0  0  0  0
    2.1194   14.9897   38.5061 C   0  0  0  0  0  0  0  0  0  0  0  0
    1.4608   13.6203   38.6924 C   0  0  1  0  0  0  0  0  0  0  0  0
    2.4241   12.4810   39.0487 C   0  0  0  0  0  0  0  0  0  0  0  0
    1.7395   10.3916   41.8713 N   0  0  0  0  0  0  0  0  0  0  0  0
    1.9868    9.1306   42.2976 C   0  0  0  0  0  0  0  0  0  0  0  0
  1  2  1  0
  2  3  1  0
  3  4  1  0
  4  5  2  0
  4  6  1  0
  6  7  2  0
  7  8  1  0
  8  9  2  0
  9 10  1  0
 10 11  1  0
 12 11  1  1
 12 13  1  0
 13 14  1  0
 14 15  1  0
 16 15  1  1
 16 17  1  0
  9 18  1  0
 18 19  2  0
 19  6  1  0
 17 10  1  0
 16 12  1  0
M  END
>  <original SMILES>  (22) 
CCNC(=O)c1ccc(N2C[C@H]3CCC[C@H]3C2)nc1

>  <original ID>  (22) 
WZUTWQFAMMZGKL-BETUJISGSA-N

>  <inchikey>  (22) 
WZUTWQFAMMZGKL-BETUJISGSA-N

>  <fragmenstein_error>  (22) 
None

>  <ref_mols>  (22) 
x0485c,x0759a

>  <HIPPO Pose ID>  (22) 
23805

>  <fragmenstein_mode>  (22) 
expansion

>  <fragmenstein_outcome>  (22) 
acceptable

>  <name>  (22) 
WZUTWQFAMMZGKL-BETUJISGSA-N

>  <scratch_subdir>  (22) 
/opt/xchem-fragalysis-2/maxwin/BulkDock/SCRATCH/304086/C11719-P29

>  <distance_score>  (22) 
0.621464

>  <ref_pdb>  (22) 
x0485c

>  <alias>  (22) 
None

>  <HIPPO Compound ID>  (22) 
11719

>  <SLURM_JOB_ID>  (22) 
304086

>  <tags>  (22) 
BulkDock Fragalysis export;Fragmenstein placed

>  <csv_name>  (22) 
CpKRS_iter1_knitwork_pure_split1000_batch046.csv

>  <energy_score>  (22) 
-3.005943

>  <score_inspiration>  (22) 
0.438674

>  <fragmenstein_runtime>  (22) 
9.803594

$$$$
24522
     RDKit          3D

 22 23  0  0  0  0  0  0  0  0999 V2000
    6.4305    3.1292   42.2105 C   0  0  0  0  0  0  0  0  0  0  0  0
    4.9250    3.3264   42.2285 C   0  0  0  0  0  0  0  0  0  0  0  0
    4.6192    4.5337   42.8983 O   0  0  0  0  0  0  0  0  0  0  0  0
    3.8578    4.5788   44.0188 C   0  0  0  0  0  0  0  0  0  0  0  0
    3.8096    3.5329   44.9419 C   0  0  0  0  0  0  0  0  0  0  0  0
    3.1884    3.7173   46.1709 C   0  0  0  0  0  0  0  0  0  0  0  0
    2.6477    4.9575   46.4387 C   0  0  0  0  0  0  0  0  0  0  0  0
    2.7102    6.0055   45.5871 N   0  0  0  0  0  0  0  0  0  0  0  0
    3.3021    5.8148   44.3812 C   0  0  0  0  0  0  0  0  0  0  0  0
    3.4094    6.9650   43.5916 N   0  0  0  0  0  0  0  0  0  0  0  0
    3.8614    7.1328   42.0950 C   0  0  0  0  0  0  0  0  0  0  0  0
    4.1255    6.3447   41.3126 O   0  0  0  0  0  0  0  0  0  0  0  0
    3.9421    8.6839   42.0245 N   0  0  0  0  0  0  0  0  0  0  0  0
    4.4640    9.5518   40.9836 C   0  0  0  0  0  0  0  0  0  0  0  0
    3.4859    9.9022   39.8609 C   0  0  1  0  0  0  0  0  0  0  0  0
    3.1651    8.7064   38.9587 C   0  0  0  0  0  0  0  0  0  0  0  0
    2.2674   10.5911   40.4370 C   0  0  0  0  0  0  0  0  0  0  0  0
    1.2516    9.8396   41.0206 C   0  0  0  0  0  0  0  0  0  0  0  0
    0.1954   10.4896   41.6309 C   0  0  0  0  0  0  0  0  0  0  0  0
    0.1580   11.8771   41.6244 C   0  0  0  0  0  0  0  0  0  0  0  0
    1.1952   12.5567   41.0116 C   0  0  0  0  0  0  0  0  0  0  0  0
    2.2561   11.9529   40.4298 N   0  0  0  0  0  0  0  0  0  0  0  0
  1  2  1  0
  2  3  1  0
  3  4  1  0
  4  5  2  0
  5  6  1  0
  6  7  2  0
  7  8  1  0
  8  9  2  0
  9 10  1  0
 10 11  1  0
 11 12  2  0
 11 13  1  0
 13 14  1  0
 14 15  1  0
 15 16  1  1
 15 17  1  0
 17 18  2  0
 18 19  1  0
 19 20  2  0
 20 21  1  0
 21 22  2  0
  9  4  1  0
 22 17  1  0
M  END
>  <original SMILES>  (23) 
CCOc1cccnc1NC(=O)NC[C@@H](C)c1ccccn1

>  <original ID>  (23) 
SZACTYDJJYHEOJ-GFCCVEGCSA-N

>  <inchikey>  (23) 
SZACTYDJJYHEOJ-GFCCVEGCSA-N

>  <fragmenstein_error>  (23) 
None

>  <ref_mols>  (23) 
x0485c,x0606a

>  <HIPPO Pose ID>  (23) 
24522

>  <fragmenstein_mode>  (23) 
expansion

>  <fragmenstein_outcome>  (23) 
acceptable

>  <name>  (23) 
SZACTYDJJYHEOJ-GFCCVEGCSA-N

>  <scratch_subdir>  (23) 
/opt/xchem-fragalysis-2/maxwin/BulkDock/SCRATCH/304085/C1967-P41

>  <distance_score>  (23) 
0.943099

>  <ref_pdb>  (23) 
x0606a

>  <alias>  (23) 
None

>  <HIPPO Compound ID>  (23) 
1967

>  <SLURM_JOB_ID>  (23) 
304085

>  <tags>  (23) 
BulkDock Fragalysis export;Fragmenstein placed

>  <csv_name>  (23) 
CpKRS_iter1_knitwork_pure_split1000_batch045.csv

>  <energy_score>  (23) 
-22.201357

>  <score_inspiration>  (23) 
0.505788

>  <fragmenstein_runtime>  (23) 
7.616973

$$$$
24765
     RDKit          3D

 22 24  0  0  0  0  0  0  0  0999 V2000
  -11.0636  -15.8142   46.7110 O   0  0  0  0  0  0  0  0  0  0  0  0
  -11.8281  -14.9157   46.3794 C   0  0  0  0  0  0  0  0  0  0  0  0
  -11.4127  -13.4841   46.1069 C   0  0  0  0  0  0  0  0  0  0  0  0
  -10.2348  -13.0120   46.9144 C   0  0  0  0  0  0  0  0  0  0  0  0
   -9.6558  -13.4859   48.0793 C   0  0  0  0  0  0  0  0  0  0  0  0
   -8.6151  -12.7298   48.5938 N   0  0  0  0  0  0  0  0  0  0  0  0
   -8.3669  -11.7287   47.7825 C   0  0  0  0  0  0  0  0  0  0  0  0
   -9.3979  -11.5836   46.4233 S   0  0  0  0  0  0  0  0  0  0  0  0
  -13.1571  -15.1845   46.2562 O   0  0  0  0  0  0  0  0  0  0  0  0
  -13.9758  -14.6061   45.2155 C   0  0  0  0  0  0  0  0  0  0  0  0
  -14.2398  -15.6712   44.1390 C   0  0  0  0  0  0  0  0  0  0  0  0
  -13.0367  -15.8771   43.2813 C   0  0  0  0  0  0  0  0  0  0  0  0
  -12.0706  -16.8539   43.4284 C   0  0  0  0  0  0  0  0  0  0  0  0
  -10.9956  -16.3975   42.6656 C   0  0  0  0  0  0  0  0  0  0  0  0
  -11.2572  -15.2580   42.0315 N   0  0  0  0  0  0  0  0  0  0  0  0
  -12.5618  -15.0005   42.3056 N   0  0  0  0  0  0  0  0  0  0  0  0
  -13.1966  -13.9104   41.6436 C   0  0  0  0  0  0  0  0  0  0  0  0
  -14.5784  -13.8717   41.4336 C   0  0  0  0  0  0  0  0  0  0  0  0
  -15.1578  -12.7861   40.7683 C   0  0  0  0  0  0  0  0  0  0  0  0
  -14.3623  -11.7441   40.2950 C   0  0  0  0  0  0  0  0  0  0  0  0
  -12.9821  -11.7889   40.4715 C   0  0  0  0  0  0  0  0  0  0  0  0
  -12.3996  -12.8692   41.1374 C   0  0  0  0  0  0  0  0  0  0  0  0
  1  2  2  0
  2  3  1  0
  3  4  1  0
  4  5  2  0
  5  6  1  0
  6  7  2  0
  7  8  1  0
  2  9  1  0
  9 10  1  0
 10 11  1  0
 11 12  1  0
 12 13  2  0
 13 14  1  0
 14 15  2  0
 15 16  1  0
 16 17  1  0
 17 18  2  0
 18 19  1  0
 19 20  2  0
 20 21  1  0
 21 22  2  0
  8  4  1  0
 16 12  1  0
 22 17  1  0
M  END
>  <original SMILES>  (24) 
O=C(Cc1cncs1)OCCc1ccnn1-c1ccccc1

>  <original ID>  (24) 
WDZNYRFTLQSZDQ-UHFFFAOYSA-N

>  <inchikey>  (24) 
WDZNYRFTLQSZDQ-UHFFFAOYSA-N

>  <fragmenstein_error>  (24) 
None

>  <ref_mols>  (24) 
x0502b,x0787a

>  <HIPPO Pose ID>  (24) 
24765

>  <fragmenstein_mode>  (24) 
expansion

>  <fragmenstein_outcome>  (24) 
acceptable

>  <name>  (24) 
WDZNYRFTLQSZDQ-UHFFFAOYSA-N

>  <scratch_subdir>  (24) 
/opt/xchem-fragalysis-2/maxwin/BulkDock/SCRATCH/304152/C8414-P44

>  <distance_score>  (24) 
0.981116

>  <ref_pdb>  (24) 
x0502b

>  <alias>  (24) 
None

>  <HIPPO Compound ID>  (24) 
8414

>  <SLURM_JOB_ID>  (24) 
304152

>  <tags>  (24) 
BulkDock Fragalysis export;Fragmenstein placed

>  <csv_name>  (24) 
CpKRS_iter1_knitwork_pure_split1000_batch112.csv

>  <energy_score>  (24) 
-37.100923

>  <score_inspiration>  (24) 
0.37299

>  <fragmenstein_runtime>  (24) 
4.677279

$$$$
24964
     RDKit          3D

 12 12  0  0  0  0  0  0  0  0999 V2000
    5.6752   -8.2244   24.2522 C   0  0  0  0  0  0  0  0  0  0  0  0
    5.3911   -9.7164   24.4176 C   0  0  1  0  0  0  0  0  0  0  0  0
    5.8342  -10.1262   25.7543 N   0  0  0  0  0  0  0  0  0  0  0  0
    3.8955  -10.0276   24.2487 C   0  0  0  0  0  0  0  0  0  0  0  0
    3.5590  -11.3160   23.4556 C   0  0  1  0  0  0  0  0  0  0  0  0
    4.5131  -12.5033   23.6716 C   0  0  0  0  0  0  0  0  0  0  0  0
    3.7813  -13.8414   23.6806 C   0  0  0  0  0  0  0  0  0  0  0  0
    2.7601  -13.9212   24.7336 N   0  0  0  0  0  0  0  0  0  0  0  0
    3.3300  -14.3936   25.9971 C   0  0  0  0  0  0  0  0  0  0  0  0
    2.0016  -12.6675   24.9327 C   0  0  2  0  0  0  0  0  0  0  0  0
    0.5352  -13.0112   25.2078 C   0  0  0  0  0  0  0  0  0  0  0  0
    2.0985  -11.7283   23.7180 C   0  0  0  0  0  0  0  0  0  0  0  0
  2  1  1  1
  2  3  1  0
  2  4  1  0
  5  4  1  1
  5  6  1  0
  6  7  1  0
  7  8  1  0
  8  9  1  0
  8 10  1  0
 10 11  1  6
 10 12  1  0
 12  5  1  0
M  END
>  <original SMILES>  (25) 
C[C@@H]1C[C@@H](C[C@@H](C)N)CCN1C

>  <original ID>  (25) 
QSVSAOBUDCRTOK-OPRDCNLKSA-N

>  <inchikey>  (25) 
QSVSAOBUDCRTOK-OPRDCNLKSA-N

>  <fragmenstein_error>  (25) 
None

>  <ref_mols>  (25) 
x0414a,x0489a

>  <HIPPO Pose ID>  (25) 
24964

>  <fragmenstein_mode>  (25) 
expansion

>  <fragmenstein_outcome>  (25) 
acceptable

>  <name>  (25) 
QSVSAOBUDCRTOK-OPRDCNLKSA-N

>  <scratch_subdir>  (25) 
/opt/xchem-fragalysis-2/maxwin/BulkDock/SCRATCH/304088/C21319-P6

>  <distance_score>  (25) 
0.977686

>  <ref_pdb>  (25) 
x0414a

>  <alias>  (25) 
None

>  <HIPPO Compound ID>  (25) 
21319

>  <SLURM_JOB_ID>  (25) 
304088

>  <tags>  (25) 
BulkDock Fragalysis export;Fragmenstein placed

>  <csv_name>  (25) 
CpKRS_iter1_knitwork_pure_split1000_batch048.csv

>  <energy_score>  (25) 
-28.951762

>  <score_inspiration>  (25) 
0.545455

>  <fragmenstein_runtime>  (25) 
7.513934

$$$$
25776
     RDKit          3D

 13 13  0  0  0  0  0  0  0  0999 V2000
    1.9624  -12.4054   23.2553 C   0  0  0  0  0  0  0  0  0  0  0  0
    2.0305  -12.3758   24.7697 C   0  0  0  0  0  0  0  0  0  0  0  0
    3.3617  -12.9011   25.3434 C   0  0  2  0  0  0  0  0  0  0  0  0
    3.3550  -12.7835   26.8689 C   0  0  0  0  0  0  0  0  0  0  0  0
    3.4744  -11.3316   27.3309 C   0  0  0  0  0  0  0  0  0  0  0  0
    4.6444  -10.5884   26.6616 C   0  0  1  0  0  0  0  0  0  0  0  0
    5.9832  -11.0143   27.2790 C   0  0  0  0  0  0  0  0  0  0  0  0
    4.5929  -10.7801   25.2024 N   0  0  0  0  0  0  0  0  0  0  0  0
    5.5418   -9.9554   24.4554 C   0  0  0  0  0  0  0  0  0  0  0  0
    4.9446   -8.5544   24.2014 C   0  0  1  0  0  0  0  0  0  0  0  0
    5.8492   -7.7852   23.2564 C   0  0  0  0  0  0  0  0  0  0  0  0
    3.5654   -8.6584   23.6439 N   0  0  0  0  0  0  0  0  0  0  0  0
    4.6029  -12.1828   24.7951 C   0  0  0  0  0  0  0  0  0  0  0  0
  1  2  1  0
  3  2  1  6
  3  4  1  0
  4  5  1  0
  5  6  1  0
  6  7  1  1
  6  8  1  0
  8  9  1  0
  9 10  1  0
 10 11  1  6
 10 12  1  0
  8 13  1  0
 13  3  1  0
M  END
>  <original SMILES>  (26) 
CC[C@@H]1CC[C@@H](C)N(C[C@@H](C)N)C1

>  <original ID>  (26) 
XTPKSUYNNIDTGE-GMTAPVOTSA-N

>  <inchikey>  (26) 
XTPKSUYNNIDTGE-GMTAPVOTSA-N

>  <fragmenstein_error>  (26) 
None

>  <ref_mols>  (26) 
x0414a,x0489a

>  <HIPPO Pose ID>  (26) 
25776

>  <fragmenstein_mode>  (26) 
expansion

>  <fragmenstein_outcome>  (26) 
acceptable

>  <name>  (26) 
XTPKSUYNNIDTGE-GMTAPVOTSA-N

>  <scratch_subdir>  (26) 
/opt/xchem-fragalysis-2/maxwin/BulkDock/SCRATCH/304088/C21328-P6

>  <distance_score>  (26) 
0.983424

>  <ref_pdb>  (26) 
x0414a

>  <alias>  (26) 
None

>  <HIPPO Compound ID>  (26) 
21328

>  <SLURM_JOB_ID>  (26) 
304088

>  <tags>  (26) 
BulkDock Fragalysis export;Fragmenstein placed

>  <csv_name>  (26) 
CpKRS_iter1_knitwork_pure_split1000_batch048.csv

>  <energy_score>  (26) 
-39.667237

>  <score_inspiration>  (26) 
0.614312

>  <fragmenstein_runtime>  (26) 
4.907921

$$$$
27224
     RDKit          3D

 14 15  0  0  0  0  0  0  0  0999 V2000
    5.8301   -7.9027   23.1612 C   0  0  0  0  0  0  0  0  0  0  0  0
    4.9871   -8.5852   24.2314 C   0  0  1  0  0  0  0  0  0  0  0  0
    3.6295   -8.8350   23.6964 N   0  0  0  0  0  0  0  0  0  0  0  0
    5.7402   -9.8561   24.7027 C   0  0  0  0  0  0  0  0  0  0  0  0
    5.1459  -10.7200   25.7013 N   0  0  0  0  0  0  0  0  0  0  0  0
    4.5059  -10.1043   26.8552 C   0  0  0  0  0  0  0  0  0  0  0  0
    3.5641  -11.1783   27.3921 C   0  0  0  0  0  0  0  0  0  0  0  0
    3.8899  -12.4151   26.5633 C   0  0  1  0  0  0  0  0  0  0  0  0
    2.8359  -13.4581   26.4284 C   0  0  0  0  0  0  0  0  0  0  0  0
    3.1240  -14.7000   26.0934 N   0  0  0  0  0  0  0  0  0  0  0  0
    1.9942  -15.4834   26.1740 C   0  0  0  0  0  0  0  0  0  0  0  0
    0.8315  -14.8136   26.4780 C   0  0  0  0  0  0  0  0  0  0  0  0
    1.1595  -13.1503   26.6717 S   0  0  0  0  0  0  0  0  0  0  0  0
    4.3111  -11.8164   25.2321 C   0  0  0  0  0  0  0  0  0  0  0  0
  2  1  1  6
  2  3  1  0
  2  4  1  0
  4  5  1  0
  5  6  1  0
  6  7  1  0
  7  8  1  0
  8  9  1  6
  9 10  2  0
 10 11  1  0
 11 12  2  0
 12 13  1  0
  8 14  1  0
 14  5  1  0
 13  9  1  0
M  END
>  <original SMILES>  (27) 
C[C@@H](N)CN1CC[C@@H](c2nccs2)C1

>  <original ID>  (27) 
VTMWMMWZOSCZEO-RKDXNWHRSA-N

>  <inchikey>  (27) 
VTMWMMWZOSCZEO-RKDXNWHRSA-N

>  <fragmenstein_error>  (27) 
None

>  <ref_mols>  (27) 
x0414a,x0502c

>  <HIPPO Pose ID>  (27) 
27224

>  <fragmenstein_mode>  (27) 
expansion

>  <fragmenstein_outcome>  (27) 
acceptable

>  <name>  (27) 
VTMWMMWZOSCZEO-RKDXNWHRSA-N

>  <scratch_subdir>  (27) 
/opt/xchem-fragalysis-2/maxwin/BulkDock/SCRATCH/304107/C17742-P6

>  <distance_score>  (27) 
0.985749

>  <ref_pdb>  (27) 
x0414a

>  <alias>  (27) 
None

>  <HIPPO Compound ID>  (27) 
17742

>  <SLURM_JOB_ID>  (27) 
304107

>  <tags>  (27) 
BulkDock Fragalysis export;Fragmenstein placed

>  <csv_name>  (27) 
CpKRS_iter1_knitwork_pure_split1000_batch067.csv

>  <energy_score>  (27) 
-81.733418

>  <score_inspiration>  (27) 
0.706923

>  <fragmenstein_runtime>  (27) 
4.02323

$$$$
28588
     RDKit          3D

 14 15  0  0  0  0  0  0  0  0999 V2000
    5.9203   -8.0106   23.1686 C   0  0  0  0  0  0  0  0  0  0  0  0
    4.9725   -8.7813   24.0826 C   0  0  1  0  0  0  0  0  0  0  0  0
    3.8682   -9.3151   23.2848 N   0  0  0  0  0  0  0  0  0  0  0  0
    5.7676   -9.8972   24.7984 C   0  0  0  0  0  0  0  0  0  0  0  0
    5.1305  -10.7347   25.8002 N   0  0  0  0  0  0  0  0  0  0  0  0
    4.2039  -10.0815   26.7137 C   0  0  0  0  0  0  0  0  0  0  0  0
    3.5361  -11.2500   27.4311 C   0  0  0  0  0  0  0  0  0  0  0  0
    3.9012  -12.4834   26.5995 C   0  0  1  0  0  0  0  0  0  0  0  0
    2.8586  -13.5326   26.4015 C   0  0  0  0  0  0  0  0  0  0  0  0
    3.1677  -14.7715   26.0689 N   0  0  0  0  0  0  0  0  0  0  0  0
    2.0420  -15.5651   26.0991 C   0  0  0  0  0  0  0  0  0  0  0  0
    0.8628  -14.9062   26.3590 C   0  0  0  0  0  0  0  0  0  0  0  0
    1.1689  -13.2398   26.5683 S   0  0  0  0  0  0  0  0  0  0  0  0
    4.4259  -11.9092   25.2923 C   0  0  0  0  0  0  0  0  0  0  0  0
  2  1  1  6
  2  3  1  0
  2  4  1  0
  4  5  1  0
  5  6  1  0
  6  7  1  0
  7  8  1  0
  8  9  1  6
  9 10  2  0
 10 11  1  0
 11 12  2  0
 12 13  1  0
  8 14  1  0
 14  5  1  0
 13  9  1  0
M  END
>  <original SMILES>  (28) 
C[C@@H](N)CN1CC[C@@H](c2nccs2)C1

>  <original ID>  (28) 
VTMWMMWZOSCZEO-RKDXNWHRSA-N

>  <inchikey>  (28) 
VTMWMMWZOSCZEO-RKDXNWHRSA-N

>  <fragmenstein_error>  (28) 
None

>  <ref_mols>  (28) 
x0414a,x0504b

>  <HIPPO Pose ID>  (28) 
28588

>  <fragmenstein_mode>  (28) 
expansion

>  <fragmenstein_outcome>  (28) 
acceptable

>  <name>  (28) 
VTMWMMWZOSCZEO-RKDXNWHRSA-N

>  <scratch_subdir>  (28) 
/opt/xchem-fragalysis-2/maxwin/BulkDock/SCRATCH/304110/C17742-P6

>  <distance_score>  (28) 
0.956403

>  <ref_pdb>  (28) 
x0414a

>  <alias>  (28) 
None

>  <HIPPO Compound ID>  (28) 
17742

>  <SLURM_JOB_ID>  (28) 
304110

>  <tags>  (28) 
BulkDock Fragalysis export;Fragmenstein placed

>  <csv_name>  (28) 
CpKRS_iter1_knitwork_pure_split1000_batch070.csv

>  <energy_score>  (28) 
-80.912072

>  <score_inspiration>  (28) 
0.685813

>  <fragmenstein_runtime>  (28) 
4.11458

$$$$
30988
     RDKit          3D

 14 14  0  0  0  0  0  0  0  0999 V2000
    3.7227  -17.3085   24.8323 C   0  0  0  0  0  0  0  0  0  0  0  0
    4.7776  -16.3635   25.3633 C   0  0  0  0  0  0  0  0  0  0  0  0
    5.7572  -16.7244   25.8841 O   0  0  0  0  0  0  0  0  0  0  0  0
    4.2482  -14.9322   25.1041 N   0  0  0  0  0  0  0  0  0  0  0  0
    4.7676  -13.6562   25.5154 C   0  0  0  0  0  0  0  0  0  0  0  0
    4.6586  -12.6230   24.4537 C   0  0  0  0  0  0  0  0  0  0  0  0
    4.4766  -12.7225   23.1521 N   0  0  0  0  0  0  0  0  0  0  0  0
    4.5472  -11.4397   22.6393 N   0  0  0  0  0  0  0  0  0  0  0  0
    4.7714  -10.6413   23.6601 C   0  0  0  0  0  0  0  0  0  0  0  0
    4.8980   -9.1392   23.7137 C   0  0  0  0  0  0  0  0  0  0  0  0
    5.4103   -8.5796   22.3811 C   0  0  0  0  0  0  0  0  0  0  0  0
    5.8814   -8.7249   24.8134 C   0  0  0  0  0  0  0  0  0  0  0  0
    3.5731   -8.5093   24.0043 N   0  0  0  0  0  0  0  0  0  0  0  0
    4.8284  -11.3207   24.8536 O   0  0  0  0  0  0  0  0  0  0  0  0
  1  2  1  0
  2  3  2  0
  2  4  1  0
  4  5  1  0
  5  6  1  0
  6  7  2  0
  7  8  1  0
  8  9  2  0
  9 10  1  0
 10 11  1  0
 10 12  1  0
 10 13  1  0
  9 14  1  0
 14  6  1  0
M  END
>  <original SMILES>  (29) 
CC(=O)NCc1nnc(C(C)(C)N)o1

>  <original ID>  (29) 
LYXHBZUCETXLGY-UHFFFAOYSA-N

>  <inchikey>  (29) 
LYXHBZUCETXLGY-UHFFFAOYSA-N

>  <fragmenstein_error>  (29) 
None

>  <ref_mols>  (29) 
x0414a,x0602a

>  <HIPPO Pose ID>  (29) 
30988

>  <fragmenstein_mode>  (29) 
expansion

>  <fragmenstein_outcome>  (29) 
acceptable

>  <name>  (29) 
LYXHBZUCETXLGY-UHFFFAOYSA-N

>  <scratch_subdir>  (29) 
/opt/xchem-fragalysis-2/maxwin/BulkDock/SCRATCH/304050/C27632-P39

>  <distance_score>  (29) 
0.963518

>  <ref_pdb>  (29) 
x0602a

>  <alias>  (29) 
None

>  <HIPPO Compound ID>  (29) 
27632

>  <SLURM_JOB_ID>  (29) 
304050

>  <tags>  (29) 
BulkDock Fragalysis export;Fragmenstein placed

>  <csv_name>  (29) 
CpKRS_iter1_knitwork_pure_split1000_batch010.csv

>  <energy_score>  (29) 
-4.464509

>  <score_inspiration>  (29) 
0.680504

>  <fragmenstein_runtime>  (29) 
6.070219

$$$$
31026
     RDKit          3D

 10 10  0  0  0  0  0  0  0  0999 V2000
    5.1582  -10.6577   23.9131 C   0  0  0  0  0  0  0  0  0  0  0  0
    4.0997  -11.3446   24.7689 C   0  0  2  0  0  0  0  0  0  0  0  0
    4.0006  -10.6637   26.0649 N   0  0  0  0  0  0  0  0  0  0  0  0
    4.4056  -12.8466   24.9825 C   0  0  0  0  0  0  0  0  0  0  0  0
    3.2628  -13.6115   25.5793 C   0  0  0  0  0  0  0  0  0  0  0  0
    2.9887  -14.9632   25.6384 C   0  0  0  0  0  0  0  0  0  0  0  0
    1.7339  -15.0297   26.2580 C   0  0  0  0  0  0  0  0  0  0  0  0
    0.9862  -16.1012   26.5402 O   0  0  0  0  0  0  0  0  0  0  0  0
    1.2331  -13.8469   26.5870 N   0  0  0  0  0  0  0  0  0  0  0  0
    2.2258  -13.0022   26.2481 N   0  0  0  0  0  0  0  0  0  0  0  0
  2  1  1  6
  2  3  1  0
  2  4  1  0
  4  5  1  0
  5  6  2  0
  6  7  1  0
  7  8  1  0
  7  9  2  0
  9 10  1  0
 10  5  1  0
M  END
>  <original SMILES>  (30) 
C[C@H](N)Cc1cc(O)n[nH]1

>  <original ID>  (30) 
FSUZOFPGBAPYPL-BYPYZUCNSA-N

>  <inchikey>  (30) 
FSUZOFPGBAPYPL-BYPYZUCNSA-N

>  <fragmenstein_error>  (30) 
None

>  <ref_mols>  (30) 
x0414a,x0421b

>  <HIPPO Pose ID>  (30) 
31026

>  <fragmenstein_mode>  (30) 
expansion

>  <fragmenstein_outcome>  (30) 
acceptable

>  <name>  (30) 
FSUZOFPGBAPYPL-BYPYZUCNSA-N

>  <scratch_subdir>  (30) 
/opt/xchem-fragalysis-2/maxwin/BulkDock/SCRATCH/304053/C7579-P6

>  <distance_score>  (30) 
0.989104

>  <ref_pdb>  (30) 
x0414a

>  <alias>  (30) 
None

>  <HIPPO Compound ID>  (30) 
7579

>  <SLURM_JOB_ID>  (30) 
304053

>  <tags>  (30) 
BulkDock Fragalysis export;Fragmenstein placed

>  <csv_name>  (30) 
CpKRS_iter1_knitwork_pure_split1000_batch013.csv

>  <energy_score>  (30) 
-31.9823

>  <score_inspiration>  (30) 
0.521757

>  <fragmenstein_runtime>  (30) 
3.686573

$$$$
32590
     RDKit          3D

 11 11  0  0  0  0  0  0  0  0999 V2000
    5.9416   -7.6560   23.6893 C   0  0  0  0  0  0  0  0  0  0  0  0
    4.9297   -8.5444   24.4048 C   0  0  1  0  0  0  0  0  0  0  0  0
    3.7337   -8.7054   23.5426 N   0  0  0  0  0  0  0  0  0  0  0  0
    5.6225   -9.8643   24.7979 C   0  0  0  0  0  0  0  0  0  0  0  0
    4.6748  -10.9597   25.1618 C   0  0  0  0  0  0  0  0  0  0  0  0
    3.9474  -11.0206   26.3966 C   0  0  0  0  0  0  0  0  0  0  0  0
    3.1030  -12.0971   26.4061 C   0  0  0  0  0  0  0  0  0  0  0  0
    1.9550  -12.4919   27.5815 Cl  0  0  0  0  0  0  0  0  0  0  0  0
    3.2208  -13.0877   25.0499 S   0  0  0  0  0  0  0  0  0  0  0  0
    4.2975  -12.0029   24.3384 C   0  0  0  0  0  0  0  0  0  0  0  0
    4.7241  -12.2702   22.6955 Cl  0  0  0  0  0  0  0  0  0  0  0  0
  2  1  1  6
  2  3  1  0
  2  4  1  0
  4  5  1  0
  5  6  1  0
  6  7  2  0
  7  8  1  0
  7  9  1  0
  9 10  1  0
 10 11  1  0
 10  5  2  0
M  END
>  <original SMILES>  (31) 
C[C@@H](N)Cc1cc(Cl)sc1Cl

>  <original ID>  (31) 
FJSUOWBBQUIZGY-SCSAIBSYSA-N

>  <inchikey>  (31) 
FJSUOWBBQUIZGY-SCSAIBSYSA-N

>  <fragmenstein_error>  (31) 
None

>  <ref_mols>  (31) 
x0414a,x0787a

>  <HIPPO Pose ID>  (31) 
32590

>  <fragmenstein_mode>  (31) 
expansion

>  <fragmenstein_outcome>  (31) 
acceptable

>  <name>  (31) 
FJSUOWBBQUIZGY-SCSAIBSYSA-N

>  <scratch_subdir>  (31) 
/opt/xchem-fragalysis-2/maxwin/BulkDock/SCRATCH/304151/C23566-P6

>  <distance_score>  (31) 
0.999721

>  <ref_pdb>  (31) 
x0414a

>  <alias>  (31) 
None

>  <HIPPO Compound ID>  (31) 
23566

>  <SLURM_JOB_ID>  (31) 
304151

>  <tags>  (31) 
BulkDock Fragalysis export;Fragmenstein placed

>  <csv_name>  (31) 
CpKRS_iter1_knitwork_pure_split1000_batch111.csv

>  <energy_score>  (31) 
-32.539885

>  <score_inspiration>  (31) 
0.541666

>  <fragmenstein_runtime>  (31) 
4.538172

$$$$
33409
     RDKit          3D

 14 15  0  0  0  0  0  0  0  0999 V2000
    5.8288   -7.9185   23.1776 C   0  0  0  0  0  0  0  0  0  0  0  0
    4.9787   -8.6027   24.2419 C   0  0  1  0  0  0  0  0  0  0  0  0
    3.6236   -8.8507   23.6992 N   0  0  0  0  0  0  0  0  0  0  0  0
    5.7259   -9.8773   24.7152 C   0  0  0  0  0  0  0  0  0  0  0  0
    5.1225  -10.7460   25.7048 N   0  0  0  0  0  0  0  0  0  0  0  0
    4.4808  -10.1356   26.8612 C   0  0  0  0  0  0  0  0  0  0  0  0
    3.5171  -11.2016   27.3755 C   0  0  0  0  0  0  0  0  0  0  0  0
    3.8553  -12.4418   26.5571 C   0  0  1  0  0  0  0  0  0  0  0  0
    2.8057  -13.4909   26.4152 C   0  0  0  0  0  0  0  0  0  0  0  0
    3.0961  -14.7251   26.0518 N   0  0  0  0  0  0  0  0  0  0  0  0
    1.9744  -15.5203   26.1409 C   0  0  0  0  0  0  0  0  0  0  0  0
    0.8118  -14.8657   26.4759 C   0  0  0  0  0  0  0  0  0  0  0  0
    1.1311  -13.2035   26.6994 S   0  0  0  0  0  0  0  0  0  0  0  0
    4.2907  -11.8427   25.2295 C   0  0  0  0  0  0  0  0  0  0  0  0
  2  1  1  6
  2  3  1  0
  2  4  1  0
  4  5  1  0
  5  6  1  0
  6  7  1  0
  7  8  1  0
  8  9  1  6
  9 10  2  0
 10 11  1  0
 11 12  2  0
 12 13  1  0
  8 14  1  0
 14  5  1  0
 13  9  1  0
M  END
>  <original SMILES>  (32) 
C[C@@H](N)CN1CC[C@@H](c2nccs2)C1

>  <original ID>  (32) 
VTMWMMWZOSCZEO-RKDXNWHRSA-N

>  <inchikey>  (32) 
VTMWMMWZOSCZEO-RKDXNWHRSA-N

>  <fragmenstein_error>  (32) 
None

>  <ref_mols>  (32) 
x0414a,x0504a

>  <HIPPO Pose ID>  (32) 
33409

>  <fragmenstein_mode>  (32) 
expansion

>  <fragmenstein_outcome>  (32) 
acceptable

>  <name>  (32) 
VTMWMMWZOSCZEO-RKDXNWHRSA-N

>  <scratch_subdir>  (32) 
/opt/xchem-fragalysis-2/maxwin/BulkDock/SCRATCH/304108/C17742-P6

>  <distance_score>  (32) 
0.87243

>  <ref_pdb>  (32) 
x0414a

>  <alias>  (32) 
None

>  <HIPPO Compound ID>  (32) 
17742

>  <SLURM_JOB_ID>  (32) 
304108

>  <tags>  (32) 
BulkDock Fragalysis export;Fragmenstein placed

>  <csv_name>  (32) 
CpKRS_iter1_knitwork_pure_split1000_batch068.csv

>  <energy_score>  (32) 
-81.6655

>  <score_inspiration>  (32) 
0.716114

>  <fragmenstein_runtime>  (32) 
4.044501

$$$$
35235
     RDKit          3D

 17 18  0  0  0  0  0  0  0  0999 V2000
    5.8773   -8.1754   23.6486 C   0  0  0  0  0  0  0  0  0  0  0  0
    4.9356   -8.9064   24.5994 C   0  0  2  0  0  0  0  0  0  0  0  0
    5.6632  -10.0410   25.3801 C   0  0  0  0  0  0  0  0  0  0  0  0
    4.7808  -11.0483   25.9405 N   0  0  0  0  0  0  0  0  0  0  0  0
    3.9870  -10.6543   27.0848 C   0  0  0  0  0  0  0  0  0  0  0  0
    2.7372  -11.5225   27.1023 C   0  0  0  0  0  0  0  0  0  0  0  0
    2.9628  -13.0041   26.8147 C   0  0  0  0  0  0  0  0  0  0  0  0
    4.2475  -13.3966   26.0964 C   0  0  0  0  0  0  0  0  0  0  0  0
    5.3590  -12.3606   26.1287 C   0  0  0  0  0  0  0  0  0  0  0  0
    3.6547   -9.2661   23.9097 N   0  0  0  0  0  0  0  0  0  0  0  0
    3.4856  -10.5763   23.4071 C   0  0  0  0  0  0  0  0  0  0  0  0
    2.2366  -11.1949   23.5730 C   0  0  0  0  0  0  0  0  0  0  0  0
    2.0424  -12.5388   23.2456 C   0  0  0  0  0  0  0  0  0  0  0  0
    3.0837  -13.2867   22.7057 C   0  0  0  0  0  0  0  0  0  0  0  0
    2.8808  -14.6143   22.3269 N   0  0  0  0  0  0  0  0  0  0  0  0
    4.2758  -12.6338   22.3927 C   0  0  0  0  0  0  0  0  0  0  0  0
    4.4705  -11.2882   22.7249 C   0  0  0  0  0  0  0  0  0  0  0  0
  2  1  1  6
  2  3  1  0
  3  4  1  0
  4  5  1  0
  5  6  1  0
  6  7  1  0
  7  8  1  0
  8  9  1  0
  2 10  1  0
 10 11  1  0
 11 12  2  0
 12 13  1  0
 13 14  2  0
 14 15  1  0
 14 16  1  0
 16 17  2  0
  9  4  1  0
 17 11  1  0
M  END
>  <original SMILES>  (33) 
C[C@H](CN1CCCCC1)Nc1ccc(N)cc1

>  <original ID>  (33) 
DOLYSXYXFUOJDB-GFCCVEGCSA-N

>  <inchikey>  (33) 
DOLYSXYXFUOJDB-GFCCVEGCSA-N

>  <fragmenstein_error>  (33) 
None

>  <ref_mols>  (33) 
x0414a,x0489a

>  <HIPPO Pose ID>  (33) 
35235

>  <fragmenstein_mode>  (33) 
expansion

>  <fragmenstein_outcome>  (33) 
acceptable

>  <name>  (33) 
DOLYSXYXFUOJDB-GFCCVEGCSA-N

>  <scratch_subdir>  (33) 
/opt/xchem-fragalysis-2/maxwin/BulkDock/SCRATCH/304048/C18970-P6

>  <distance_score>  (33) 
0.988875

>  <ref_pdb>  (33) 
x0414a

>  <alias>  (33) 
None

>  <HIPPO Compound ID>  (33) 
18970

>  <SLURM_JOB_ID>  (33) 
304048

>  <tags>  (33) 
BulkDock Fragalysis export;Fragmenstein placed

>  <csv_name>  (33) 
CpKRS_iter1_knitwork_pure_split1000_batch008.csv

>  <energy_score>  (33) 
-21.312844

>  <score_inspiration>  (33) 
0.58476

>  <fragmenstein_runtime>  (33) 
4.691219

$$$$
37239
     RDKit          3D

 10 10  0  0  0  0  0  0  0  0999 V2000
    5.7141   -7.4837   23.7070 C   0  0  0  0  0  0  0  0  0  0  0  0
    5.3335   -8.8779   24.1771 C   0  0  0  0  0  0  0  0  0  0  0  0
    5.4222   -9.8333   22.9918 C   0  0  0  0  0  0  0  0  0  0  0  0
    3.9628   -8.8797   24.7343 N   0  0  0  0  0  0  0  0  0  0  0  0
    3.7743  -10.0907   25.4701 C   0  0  0  0  0  0  0  0  0  0  0  0
    4.3608  -10.2514   26.7290 C   0  0  0  0  0  0  0  0  0  0  0  0
    4.5281  -11.4513   27.3257 N   0  0  0  0  0  0  0  0  0  0  0  0
    4.0108  -12.4965   26.6425 C   0  0  0  0  0  0  0  0  0  0  0  0
    3.3776  -12.3542   25.4277 C   0  0  0  0  0  0  0  0  0  0  0  0
    3.2672  -11.1574   24.8166 N   0  0  0  0  0  0  0  0  0  0  0  0
  1  2  1  0
  2  3  1  0
  2  4  1  0
  4  5  1  0
  5  6  2  0
  6  7  1  0
  7  8  2  0
  8  9  1  0
  9 10  2  0
 10  5  1  0
M  END
>  <original SMILES>  (34) 
CC(C)Nc1cnccn1

>  <original ID>  (34) 
NFFXHWPBOGQOAI-UHFFFAOYSA-N

>  <inchikey>  (34) 
NFFXHWPBOGQOAI-UHFFFAOYSA-N

>  <fragmenstein_error>  (34) 
None

>  <ref_mols>  (34) 
x0414a,x0489a,x0492a,x0492b

>  <HIPPO Pose ID>  (34) 
37239

>  <fragmenstein_mode>  (34) 
expansion

>  <fragmenstein_outcome>  (34) 
acceptable

>  <name>  (34) 
NFFXHWPBOGQOAI-UHFFFAOYSA-N

>  <scratch_subdir>  (34) 
/opt/xchem-fragalysis-2/maxwin/BulkDock/SCRATCH/304048/C19047-P6

>  <distance_score>  (34) 
1.988633

>  <ref_pdb>  (34) 
x0414a

>  <alias>  (34) 
None

>  <HIPPO Compound ID>  (34) 
19047

>  <SLURM_JOB_ID>  (34) 
304048

>  <tags>  (34) 
BulkDock Fragalysis export;Fragmenstein placed

>  <csv_name>  (34) 
CpKRS_iter1_knitwork_pure_split1000_batch008.csv

>  <energy_score>  (34) 
-8.716074

>  <score_inspiration>  (34) 
0.523011

>  <fragmenstein_runtime>  (34) 
3.78105

$$$$
37379
     RDKit          3D

 15 16  0  0  0  0  0  0  0  0999 V2000
    4.2922  -12.6329   23.4648 C   0  0  0  0  0  0  0  0  0  0  0  0
    3.4795  -11.3630   23.8290 C   0  0  0  0  0  0  0  0  0  0  0  0
    2.1305  -11.5302   23.1187 C   0  0  0  0  0  0  0  0  0  0  0  0
    3.1066  -11.3897   25.2631 N   0  0  0  0  0  0  0  0  0  0  0  0
    4.1578  -11.1551   26.1500 C   0  0  0  0  0  0  0  0  0  0  0  0
    3.8819  -10.9915   27.4930 C   0  0  0  0  0  0  0  0  0  0  0  0
    4.8512  -10.7887   28.3940 N   0  0  0  0  0  0  0  0  0  0  0  0
    6.1112  -10.7861   27.9210 C   0  0  0  0  0  0  0  0  0  0  0  0
    6.3980  -10.9426   26.6010 C   0  0  0  0  0  0  0  0  0  0  0  0
    5.4304  -11.1296   25.7011 N   0  0  0  0  0  0  0  0  0  0  0  0
    4.1781  -10.0807   23.3704 C   0  0  0  0  0  0  0  0  0  0  0  0
    5.4012  -10.0824   22.7460 N   0  0  0  0  0  0  0  0  0  0  0  0
    5.8786   -8.8509   22.8386 N   0  0  0  0  0  0  0  0  0  0  0  0
    4.9699   -8.1952   23.5554 N   0  0  0  0  0  0  0  0  0  0  0  0
    3.7963   -8.8382   23.7569 N   0  0  0  0  0  0  0  0  0  0  0  0
  1  2  1  0
  2  3  1  0
  2  4  1  0
  4  5  1  0
  5  6  2  0
  6  7  1  0
  7  8  2  0
  8  9  1  0
  9 10  2  0
  2 11  1  0
 11 12  1  0
 12 13  2  0
 13 14  1  0
 14 15  1  0
 10  5  1  0
 15 11  2  0
M  END
>  <original SMILES>  (35) 
CC(C)(Nc1cnccn1)c1nn[nH]n1

>  <original ID>  (35) 
MTRNCYITAFTDBJ-UHFFFAOYSA-N

>  <inchikey>  (35) 
MTRNCYITAFTDBJ-UHFFFAOYSA-N

>  <fragmenstein_error>  (35) 
None

>  <ref_mols>  (35) 
x0414a,x0489a,x0492a

>  <HIPPO Pose ID>  (35) 
37379

>  <fragmenstein_mode>  (35) 
expansion

>  <fragmenstein_outcome>  (35) 
acceptable

>  <name>  (35) 
MTRNCYITAFTDBJ-UHFFFAOYSA-N

>  <scratch_subdir>  (35) 
/opt/xchem-fragalysis-2/maxwin/BulkDock/SCRATCH/304048/C997-P6

>  <distance_score>  (35) 
1.315287

>  <ref_pdb>  (35) 
x0414a

>  <alias>  (35) 
None

>  <HIPPO Compound ID>  (35) 
997

>  <SLURM_JOB_ID>  (35) 
304048

>  <tags>  (35) 
BulkDock Fragalysis export;Fragmenstein placed

>  <csv_name>  (35) 
CpKRS_iter1_knitwork_pure_split1000_batch008.csv

>  <energy_score>  (35) 
-35.56529

>  <score_inspiration>  (35) 
0.479715

>  <fragmenstein_runtime>  (35) 
10.212362

$$$$
38845
     RDKit          3D

 18 19  0  0  0  0  0  0  0  0999 V2000
    0.1011  -12.1242   25.2685 C   0  0  0  0  0  0  0  0  0  0  0  0
    1.6173  -12.1965   25.0421 C   0  0  1  0  0  0  0  0  0  0  0  0
    2.0878  -13.6795   25.0148 C   0  0  0  0  0  0  0  0  0  0  0  0
    2.7509  -14.2364   26.2500 C   0  0  0  0  0  0  0  0  0  0  0  0
    2.0227  -14.4432   27.4174 C   0  0  0  0  0  0  0  0  0  0  0  0
    2.4621  -15.1906   28.4617 N   0  0  0  0  0  0  0  0  0  0  0  0
    3.6974  -15.7141   28.2843 C   0  0  0  0  0  0  0  0  0  0  0  0
    4.4604  -15.4711   27.1551 C   0  0  0  0  0  0  0  0  0  0  0  0
    4.0148  -14.7165   26.1301 N   0  0  0  0  0  0  0  0  0  0  0  0
    1.8675  -11.4981   23.7294 N   0  0  0  0  0  0  0  0  0  0  0  0
    3.1998  -11.0514   23.7620 C   0  0  0  0  0  0  0  0  0  0  0  0
    3.5187   -9.7151   23.8321 C   0  0  0  0  0  0  0  0  0  0  0  0
    4.8395   -9.4257   24.1089 C   0  0  0  0  0  0  0  0  0  0  0  0
    5.3690   -8.0238   24.0399 C   0  0  0  0  0  0  0  0  0  0  0  0
    5.6518   -7.6757   22.6882 O   0  0  0  0  0  0  0  0  0  0  0  0
    5.7250  -10.3872   24.4212 N   0  0  0  0  0  0  0  0  0  0  0  0
    5.2772  -11.6424   24.3481 C   0  0  0  0  0  0  0  0  0  0  0  0
    4.1008  -12.0136   23.8896 N   0  0  0  0  0  0  0  0  0  0  0  0
  2  1  1  6
  2  3  1  0
  3  4  1  0
  4  5  2  0
  5  6  1  0
  6  7  2  0
  7  8  1  0
  8  9  2  0
  2 10  1  0
 10 11  1  0
 11 12  2  0
 12 13  1  0
 13 14  1  0
 14 15  1  0
 13 16  2  0
 16 17  1  0
 17 18  2  0
  9  4  1  0
 18 11  1  0
M  END
>  <original SMILES>  (36) 
C[C@@H](Cc1cnccn1)Nc1cc(CO)ncn1

>  <original ID>  (36) 
NRSJBZYWOZHGJJ-VIFPVBQESA-N

>  <inchikey>  (36) 
NRSJBZYWOZHGJJ-VIFPVBQESA-N

>  <fragmenstein_error>  (36) 
None

>  <ref_mols>  (36) 
x0414a,x0489a

>  <HIPPO Pose ID>  (36) 
38845

>  <fragmenstein_mode>  (36) 
expansion

>  <fragmenstein_outcome>  (36) 
acceptable

>  <name>  (36) 
NRSJBZYWOZHGJJ-VIFPVBQESA-N

>  <scratch_subdir>  (36) 
/opt/xchem-fragalysis-2/maxwin/BulkDock/SCRATCH/304048/C1083-P33

>  <distance_score>  (36) 
0.983876

>  <ref_pdb>  (36) 
x0489a

>  <alias>  (36) 
None

>  <HIPPO Compound ID>  (36) 
1083

>  <SLURM_JOB_ID>  (36) 
304048

>  <tags>  (36) 
BulkDock Fragalysis export;Fragmenstein placed

>  <csv_name>  (36) 
CpKRS_iter1_knitwork_pure_split1000_batch008.csv

>  <energy_score>  (36) 
-8.407683

>  <score_inspiration>  (36) 
0.537178

>  <fragmenstein_runtime>  (36) 
8.584835

$$$$
38885
     RDKit          3D

 10 10  0  0  0  0  0  0  0  0999 V2000
    4.8988  -11.5595   22.2330 C   0  0  0  0  0  0  0  0  0  0  0  0
    4.0736  -11.9505   23.4588 C   0  0  2  0  0  0  0  0  0  0  0  0
    4.0092  -10.7699   24.3256 N   0  0  0  0  0  0  0  0  0  0  0  0
    4.6881  -13.1848   24.1423 C   0  0  0  0  0  0  0  0  0  0  0  0
    3.9419  -13.8609   25.2616 C   0  0  0  0  0  0  0  0  0  0  0  0
    2.5737  -13.7063   25.4687 C   0  0  0  0  0  0  0  0  0  0  0  0
    1.9668  -14.3874   26.5208 C   0  0  0  0  0  0  0  0  0  0  0  0
    2.7311  -15.2199   27.3246 C   0  0  0  0  0  0  0  0  0  0  0  0
    4.0801  -15.3301   27.0446 C   0  0  0  0  0  0  0  0  0  0  0  0
    4.7035  -14.6728   26.0443 N   0  0  0  0  0  0  0  0  0  0  0  0
  2  1  1  6
  2  3  1  0
  2  4  1  0
  4  5  1  0
  5  6  2  0
  6  7  1  0
  7  8  2  0
  8  9  1  0
  9 10  2  0
 10  5  1  0
M  END
>  <original SMILES>  (37) 
C[C@H](N)Cc1ccccn1

>  <original ID>  (37) 
OKWKKGILOAMUGL-ZETCQYMHSA-N

>  <inchikey>  (37) 
OKWKKGILOAMUGL-ZETCQYMHSA-N

>  <fragmenstein_error>  (37) 
None

>  <ref_mols>  (37) 
x0414a,x0634b

>  <HIPPO Pose ID>  (37) 
38885

>  <fragmenstein_mode>  (37) 
expansion

>  <fragmenstein_outcome>  (37) 
acceptable

>  <name>  (37) 
OKWKKGILOAMUGL-ZETCQYMHSA-N

>  <scratch_subdir>  (37) 
/opt/xchem-fragalysis-2/maxwin/BulkDock/SCRATCH/304050/C3555-P51

>  <distance_score>  (37) 
0.943468

>  <ref_pdb>  (37) 
x0634b

>  <alias>  (37) 
None

>  <HIPPO Compound ID>  (37) 
3555

>  <SLURM_JOB_ID>  (37) 
304050

>  <tags>  (37) 
BulkDock Fragalysis export;Fragmenstein placed

>  <csv_name>  (37) 
CpKRS_iter1_knitwork_pure_split1000_batch010.csv

>  <energy_score>  (37) 
-7.926724

>  <score_inspiration>  (37) 
0.638507

>  <fragmenstein_runtime>  (37) 
4.090441

$$$$
38891
     RDKit          3D

 18 19  0  0  0  0  0  0  0  0999 V2000
   -0.0171  -12.0189   25.2799 C   0  0  0  0  0  0  0  0  0  0  0  0
    1.4933  -12.2247   25.0838 C   0  0  1  0  0  0  0  0  0  0  0  0
    1.8054  -13.7360   25.1021 C   0  0  0  0  0  0  0  0  0  0  0  0
    2.5874  -14.2640   26.2813 C   0  0  0  0  0  0  0  0  0  0  0  0
    1.9567  -14.4474   27.5076 C   0  0  0  0  0  0  0  0  0  0  0  0
    2.4771  -15.1797   28.5232 N   0  0  0  0  0  0  0  0  0  0  0  0
    3.7000  -15.6972   28.2606 C   0  0  0  0  0  0  0  0  0  0  0  0
    4.3750  -15.4622   27.0748 C   0  0  0  0  0  0  0  0  0  0  0  0
    3.8436  -14.7300   26.0730 N   0  0  0  0  0  0  0  0  0  0  0  0
    1.8497  -11.6014   23.7712 N   0  0  0  0  0  0  0  0  0  0  0  0
    3.1925  -11.1606   23.7814 C   0  0  0  0  0  0  0  0  0  0  0  0
    4.1961  -12.0812   24.0004 C   0  0  0  0  0  0  0  0  0  0  0  0
    5.3865  -11.6079   24.4502 C   0  0  0  0  0  0  0  0  0  0  0  0
    5.7492  -10.3146   24.4541 N   0  0  0  0  0  0  0  0  0  0  0  0
    4.8288   -9.4256   24.0434 C   0  0  0  0  0  0  0  0  0  0  0  0
    5.2913   -8.0034   23.9276 C   0  0  0  0  0  0  0  0  0  0  0  0
    5.5085   -7.6559   22.5654 O   0  0  0  0  0  0  0  0  0  0  0  0
    3.5233   -9.8035   23.7409 C   0  0  0  0  0  0  0  0  0  0  0  0
  2  1  1  6
  2  3  1  0
  3  4  1  0
  4  5  2  0
  5  6  1  0
  6  7  2  0
  7  8  1  0
  8  9  2  0
  2 10  1  0
 10 11  1  0
 11 12  2  0
 12 13  1  0
 13 14  2  0
 14 15  1  0
 15 16  1  0
 16 17  1  0
 15 18  2  0
  9  4  1  0
 18 11  1  0
M  END
>  <original SMILES>  (38) 
C[C@@H](Cc1cnccn1)Nc1ccnc(CO)c1

>  <original ID>  (38) 
RQSNYOSCKUZYPE-JTQLQIEISA-N

>  <inchikey>  (38) 
RQSNYOSCKUZYPE-JTQLQIEISA-N

>  <fragmenstein_error>  (38) 
None

>  <ref_mols>  (38) 
x0414a,x0489a

>  <HIPPO Pose ID>  (38) 
38891

>  <fragmenstein_mode>  (38) 
expansion

>  <fragmenstein_outcome>  (38) 
acceptable

>  <name>  (38) 
RQSNYOSCKUZYPE-JTQLQIEISA-N

>  <scratch_subdir>  (38) 
/opt/xchem-fragalysis-2/maxwin/BulkDock/SCRATCH/304048/C1086-P33

>  <distance_score>  (38) 
0.990621

>  <ref_pdb>  (38) 
x0489a

>  <alias>  (38) 
None

>  <HIPPO Compound ID>  (38) 
1086

>  <SLURM_JOB_ID>  (38) 
304048

>  <tags>  (38) 
BulkDock Fragalysis export;Fragmenstein placed

>  <csv_name>  (38) 
CpKRS_iter1_knitwork_pure_split1000_batch008.csv

>  <energy_score>  (38) 
-1.231899

>  <score_inspiration>  (38) 
0.532985

>  <fragmenstein_runtime>  (38) 
13.564834

$$$$
38980
     RDKit          3D

 15 16  0  0  0  0  0  0  0  0999 V2000
    5.9661   -7.4499   23.9475 C   0  0  0  0  0  0  0  0  0  0  0  0
    5.1253   -8.6897   24.2050 C   0  0  1  0  0  0  0  0  0  0  0  0
    4.0281   -8.3316   25.0995 N   0  0  0  0  0  0  0  0  0  0  0  0
    4.6142   -9.3001   22.8861 C   0  0  0  0  0  0  0  0  0  0  0  0
    4.4636  -10.7810   23.0334 C   0  0  0  0  0  0  0  0  0  0  0  0
    3.8388  -11.3709   24.0293 N   0  0  0  0  0  0  0  0  0  0  0  0
    4.1410  -12.7269   24.0283 C   0  0  0  0  0  0  0  0  0  0  0  0
    3.7398  -13.6119   25.1095 C   0  0  0  0  0  0  0  0  0  0  0  0
    2.4443  -13.5309   25.6115 C   0  0  0  0  0  0  0  0  0  0  0  0
    2.0838  -14.3629   26.6657 C   0  0  0  0  0  0  0  0  0  0  0  0
    3.0282  -15.2346   27.1913 C   0  0  0  0  0  0  0  0  0  0  0  0
    4.3010  -15.2318   26.6412 C   0  0  0  0  0  0  0  0  0  0  0  0
    4.6889  -14.4463   25.6110 N   0  0  0  0  0  0  0  0  0  0  0  0
    4.8448  -13.1469   22.9242 C   0  0  0  0  0  0  0  0  0  0  0  0
    5.1908  -11.8276   21.9066 S   0  0  0  0  0  0  0  0  0  0  0  0
  2  1  1  6
  2  3  1  0
  2  4  1  0
  4  5  1  0
  5  6  2  0
  6  7  1  0
  7  8  1  0
  8  9  2  0
  9 10  1  0
 10 11  2  0
 11 12  1  0
 12 13  2  0
  7 14  2  0
 14 15  1  0
 15  5  1  0
 13  8  1  0
M  END
>  <original SMILES>  (39) 
C[C@@H](N)Cc1nc(-c2ccccn2)cs1

>  <original ID>  (39) 
BCPAUKREVURYGD-MRVPVSSYSA-N

>  <inchikey>  (39) 
BCPAUKREVURYGD-MRVPVSSYSA-N

>  <fragmenstein_error>  (39) 
None

>  <ref_mols>  (39) 
x0414a,x0634b

>  <HIPPO Pose ID>  (39) 
38980

>  <fragmenstein_mode>  (39) 
expansion

>  <fragmenstein_outcome>  (39) 
acceptable

>  <name>  (39) 
BCPAUKREVURYGD-MRVPVSSYSA-N

>  <scratch_subdir>  (39) 
/opt/xchem-fragalysis-2/maxwin/BulkDock/SCRATCH/304050/C27656-P51

>  <distance_score>  (39) 
0.811429

>  <ref_pdb>  (39) 
x0634b

>  <alias>  (39) 
None

>  <HIPPO Compound ID>  (39) 
27656

>  <SLURM_JOB_ID>  (39) 
304050

>  <tags>  (39) 
BulkDock Fragalysis export;Fragmenstein placed

>  <csv_name>  (39) 
CpKRS_iter1_knitwork_pure_split1000_batch010.csv

>  <energy_score>  (39) 
-50.880998

>  <score_inspiration>  (39) 
0.553341

>  <fragmenstein_runtime>  (39) 
5.284322

$$$$
39116
     RDKit          3D

 16 17  0  0  0  0  0  0  0  0999 V2000
    6.1135   -8.0274   23.6716 C   0  0  0  0  0  0  0  0  0  0  0  0
    4.8690   -8.5924   24.3464 C   0  0  1  0  0  0  0  0  0  0  0  0
    4.2824   -7.5539   25.1728 N   0  0  0  0  0  0  0  0  0  0  0  0
    3.8203   -9.0528   23.3211 C   0  0  0  0  0  0  0  0  0  0  0  0
    4.1288  -10.4386   22.9242 C   0  0  0  0  0  0  0  0  0  0  0  0
    4.8892  -10.8325   21.8502 C   0  0  0  0  0  0  0  0  0  0  0  0
    5.2633  -12.4750   22.0302 S   0  0  0  0  0  0  0  0  0  0  0  0
    4.3823  -12.5484   23.4988 C   0  0  0  0  0  0  0  0  0  0  0  0
    4.4794  -13.6473   24.2486 N   0  0  0  0  0  0  0  0  0  0  0  0
    3.7918  -14.0304   25.3862 C   0  0  0  0  0  0  0  0  0  0  0  0
    2.5331  -13.5466   25.7217 C   0  0  0  0  0  0  0  0  0  0  0  0
    1.8747  -14.0747   26.8293 C   0  0  0  0  0  0  0  0  0  0  0  0
    2.4987  -15.0575   27.5828 C   0  0  0  0  0  0  0  0  0  0  0  0
    3.7620  -15.4638   27.1970 C   0  0  0  0  0  0  0  0  0  0  0  0
    4.4210  -14.9729   26.1276 N   0  0  0  0  0  0  0  0  0  0  0  0
    3.7539  -11.4384   23.7939 N   0  0  0  0  0  0  0  0  0  0  0  0
  2  1  1  6
  2  3  1  0
  2  4  1  0
  4  5  1  0
  5  6  2  0
  6  7  1  0
  7  8  1  0
  8  9  1  0
  9 10  1  0
 10 11  2  0
 11 12  1  0
 12 13  2  0
 13 14  1  0
 14 15  2  0
  8 16  2  0
 16  5  1  0
 15 10  1  0
M  END
>  <original SMILES>  (40) 
C[C@@H](N)Cc1csc(Nc2ccccn2)n1

>  <original ID>  (40) 
AYSOKQPXWXTIBI-MRVPVSSYSA-N

>  <inchikey>  (40) 
AYSOKQPXWXTIBI-MRVPVSSYSA-N

>  <fragmenstein_error>  (40) 
None

>  <ref_mols>  (40) 
x0414a,x0634b

>  <HIPPO Pose ID>  (40) 
39116

>  <fragmenstein_mode>  (40) 
expansion

>  <fragmenstein_outcome>  (40) 
acceptable

>  <name>  (40) 
AYSOKQPXWXTIBI-MRVPVSSYSA-N

>  <scratch_subdir>  (40) 
/opt/xchem-fragalysis-2/maxwin/BulkDock/SCRATCH/304050/C17755-P51

>  <distance_score>  (40) 
0.833585

>  <ref_pdb>  (40) 
x0634b

>  <alias>  (40) 
None

>  <HIPPO Compound ID>  (40) 
17755

>  <SLURM_JOB_ID>  (40) 
304050

>  <tags>  (40) 
BulkDock Fragalysis export;Fragmenstein placed

>  <csv_name>  (40) 
CpKRS_iter1_knitwork_pure_split1000_batch010.csv

>  <energy_score>  (40) 
-79.358533

>  <score_inspiration>  (40) 
0.468532

>  <fragmenstein_runtime>  (40) 
4.865428

$$$$
39283
     RDKit          3D

 15 16  0  0  0  0  0  0  0  0999 V2000
    6.0781   -8.8873   23.8577 C   0  0  0  0  0  0  0  0  0  0  0  0
    4.5630   -9.0517   23.8223 C   0  0  0  0  0  0  0  0  0  0  0  0
    3.9537   -8.1220   24.8579 C   0  0  0  0  0  0  0  0  0  0  0  0
    4.0943  -10.4056   24.1095 N   0  0  0  0  0  0  0  0  0  0  0  0
    4.4895  -11.5103   23.4398 C   0  0  0  0  0  0  0  0  0  0  0  0
    4.9901  -11.5275   22.1645 C   0  0  0  0  0  0  0  0  0  0  0  0
    5.2803  -12.8248   21.9242 N   0  0  0  0  0  0  0  0  0  0  0  0
    5.0510  -13.6388   22.9370 N   0  0  0  0  0  0  0  0  0  0  0  0
    4.4758  -12.8785   23.8753 C   0  0  0  0  0  0  0  0  0  0  0  0
    3.9268  -13.5132   25.0751 C   0  0  0  0  0  0  0  0  0  0  0  0
    2.5862  -13.3243   25.4024 C   0  0  0  0  0  0  0  0  0  0  0  0
    2.0453  -14.0576   26.4557 C   0  0  0  0  0  0  0  0  0  0  0  0
    2.8521  -14.9576   27.1411 C   0  0  0  0  0  0  0  0  0  0  0  0
    4.1784  -15.0723   26.7571 C   0  0  0  0  0  0  0  0  0  0  0  0
    4.7415  -14.3677   25.7535 N   0  0  0  0  0  0  0  0  0  0  0  0
  1  2  1  0
  2  3  1  0
  2  4  1  0
  4  5  1  0
  5  6  2  0
  6  7  1  0
  7  8  1  0
  8  9  2  0
  9 10  1  0
 10 11  2  0
 11 12  1  0
 12 13  2  0
 13 14  1  0
 14 15  2  0
  9  5  1  0
 15 10  1  0
M  END
>  <original SMILES>  (41) 
CC(C)Nc1c[nH]nc1-c1ccccn1

>  <original ID>  (41) 
JDVGBOTZSSFWQA-UHFFFAOYSA-N

>  <inchikey>  (41) 
JDVGBOTZSSFWQA-UHFFFAOYSA-N

>  <fragmenstein_error>  (41) 
None

>  <ref_mols>  (41) 
x0414a,x0634b

>  <HIPPO Pose ID>  (41) 
39283

>  <fragmenstein_mode>  (41) 
expansion

>  <fragmenstein_outcome>  (41) 
acceptable

>  <name>  (41) 
JDVGBOTZSSFWQA-UHFFFAOYSA-N

>  <scratch_subdir>  (41) 
/opt/xchem-fragalysis-2/maxwin/BulkDock/SCRATCH/304050/C27706-P51

>  <distance_score>  (41) 
0.726785

>  <ref_pdb>  (41) 
x0634b

>  <alias>  (41) 
None

>  <HIPPO Compound ID>  (41) 
27706

>  <SLURM_JOB_ID>  (41) 
304050

>  <tags>  (41) 
BulkDock Fragalysis export;Fragmenstein placed

>  <csv_name>  (41) 
CpKRS_iter1_knitwork_pure_split1000_batch010.csv

>  <energy_score>  (41) 
-17.577338

>  <score_inspiration>  (41) 
0.54352

>  <fragmenstein_runtime>  (41) 
4.779284

$$$$
