LYSRSCPZ-x0487_D_901_1_LYSRSCPZ-x0407+D+802+1__LIG
     RDKit          3D

 15 15  0  0  0  0  0  0  0  0999 V2000
    1.4130   13.4800   41.3420 C   0  0  0  0  0  0  0  0  0  0  0  0
    0.4440   12.6630   40.5530 C   0  0  0  0  0  0  0  0  0  0  0  0
   -0.4620   13.1980   39.9180 O   0  0  0  0  0  0  0  0  0  0  0  0
    0.6190   11.3390   40.5710 N   0  0  0  0  0  0  0  0  0  0  0  0
    1.6310   10.6580   41.3830 C   0  0  0  0  0  0  0  0  0  0  0  0
    2.8580   10.2600   40.5990 C   0  0  0  0  0  0  0  0  0  0  0  0
    3.6070    9.1600   40.9910 C   0  0  0  0  0  0  0  0  0  0  0  0
    4.7240    8.7710   40.2770 C   0  0  0  0  0  0  0  0  0  0  0  0
    5.0990    9.4840   39.1540 C   0  0  0  0  0  0  0  0  0  0  0  0
    4.3620   10.5820   38.7430 C   0  0  0  0  0  0  0  0  0  0  0  0
    3.2470   10.9610   39.4670 C   0  0  0  0  0  0  0  0  0  0  0  0
    6.5280    8.9730   38.2510 S   0  0  0  0  0  0  0  0  0  0  0  0
    6.5870    9.7400   37.0400 O   0  0  0  0  0  0  0  0  0  0  0  0
    6.4760    7.5440   38.1640 O   0  0  0  0  0  0  0  0  0  0  0  0
    7.8300    9.3510   39.1080 N   0  0  0  0  0  0  0  0  0  0  0  0
  1  2  1  0
  2  3  2  0
  2  4  1  0
  4  5  1  0
  5  6  1  0
  6  7  2  0
  7  8  1  0
  8  9  2  0
  9 10  1  0
 10 11  2  0
  9 12  1  0
 12 13  2  0
 12 14  2  0
 12 15  1  0
  6 11  1  0
M  END
$$$$
