LYSRSCPZ-x0501_C_1202_1_LYSRSCPZ-x0602+B+701+1__LIG
     RDKit          3D

 17 18  0  0  0  0  0  0  0  0999 V2000
    5.2150  -15.2000   25.3680 O   0  0  0  0  0  0  0  0  0  0  0  0
    4.0620  -14.8720   25.6190 C   0  0  0  0  0  0  0  0  0  0  0  0
    3.3050  -13.9740   24.6630 C   0  0  0  0  0  0  0  0  0  0  0  0
    3.7060  -12.4920   24.7140 C   0  0  0  0  0  0  0  0  0  0  0  0
    4.1080  -11.9580   23.3430 C   0  0  0  0  0  0  0  0  0  0  0  0
    4.5180  -10.5060   23.2460 C   0  0  0  0  0  0  0  0  0  0  0  0
    4.4660   -9.6570   24.3460 C   0  0  0  0  0  0  0  0  0  0  0  0
    4.8470   -8.3290   24.2330 C   0  0  0  0  0  0  0  0  0  0  0  0
    5.2750   -7.8280   23.0240 C   0  0  0  0  0  0  0  0  0  0  0  0
    5.3350   -8.6560   21.9290 C   0  0  0  0  0  0  0  0  0  0  0  0
    4.9580   -9.9860   22.0350 C   0  0  0  0  0  0  0  0  0  0  0  0
    3.4770  -15.2660   26.7680 N   0  0  0  0  0  0  0  0  0  0  0  0
    2.1260  -14.8680   27.1940 C   0  0  0  0  0  0  0  0  0  0  0  0
    1.5100  -15.8690   28.1320 C   0  0  0  0  0  0  0  0  0  0  0  0
    2.3720  -16.1790   29.2140 O   0  0  0  0  0  0  0  0  0  0  0  0
    3.5070  -16.8460   28.6940 C   0  0  0  0  0  0  0  0  0  0  0  0
    4.3020  -15.9600   27.7690 C   0  0  0  0  0  0  0  0  0  0  0  0
  1  2  2  0
  2  3  1  0
  3  4  1  0
  4  5  1  0
  5  6  1  0
  6  7  2  0
  7  8  1  0
  8  9  2  0
  9 10  1  0
 10 11  2  0
  2 12  1  0
 12 13  1  0
 13 14  1  0
 14 15  1  0
 15 16  1  0
 16 17  1  0
  6 11  1  0
 12 17  1  0
M  END
$$$$
