LYSRSCPZ-x0407_C_1202_1_LYSRSCPZ-x0602+B+701+1__LIG
     RDKit          3D

 15 16  0  0  0  0  0  0  0  0999 V2000
    3.3280  -16.1610   28.9980 C   0  0  0  0  0  0  0  0  0  0  0  0
    2.6200  -16.3640   27.6790 C   0  0  0  0  0  0  0  0  0  0  0  0
    2.6450  -15.1410   26.7930 C   0  0  0  0  0  0  0  0  0  0  0  0
    1.6410  -14.3210   26.6740 N   0  0  0  0  0  0  0  0  0  0  0  0
    1.9460  -13.1860   25.9330 N   0  0  0  0  0  0  0  0  0  0  0  0
    3.1290  -13.2710   25.3840 C   0  0  0  0  0  0  0  0  0  0  0  0
    3.5900  -12.2920   24.5240 N   0  0  0  0  0  0  0  0  0  0  0  0
    4.8090  -12.3210   23.9270 C   0  0  0  0  0  0  0  0  0  0  0  0
    5.5550  -13.2830   23.9820 O   0  0  0  0  0  0  0  0  0  0  0  0
    5.2310  -11.1040   23.1640 C   0  0  1  0  0  0  0  0  0  0  0  0
    4.7650  -11.1170   21.7130 C   0  0  0  0  0  0  0  0  0  0  0  0
    4.8420   -9.6430   21.3290 C   0  0  0  0  0  0  0  0  0  0  0  0
    4.7880   -8.9090   22.6370 C   0  0  0  0  0  0  0  0  0  0  0  0
    4.6810   -9.8960   23.6960 O   0  0  0  0  0  0  0  0  0  0  0  0
    4.0330  -14.6930   25.8420 S   0  0  0  0  0  0  0  0  0  0  0  0
  1  2  1  0
  2  3  1  0
  3  4  2  0
  4  5  1  0
  5  6  2  0
  6  7  1  0
  7  8  1  0
  8  9  2  0
 10  8  1  1
 10 11  1  0
 11 12  1  0
 12 13  1  0
 13 14  1  0
  6 15  1  0
  3 15  1  0
 10 14  1  0
M  END
$$$$
