LYSRSCPZ-x0654_D_901_1_LYSRSCPZ-x0602+B+701+1__LIG
     RDKit          3D

 18 19  0  0  0  0  0  0  0  0999 V2000
    5.2410  -14.1830   24.6120 O   0  0  0  0  0  0  0  0  0  0  0  0
    4.0340  -14.0980   24.8510 C   0  0  0  0  0  0  0  0  0  0  0  0
    3.2110  -13.3570   24.0810 N   0  0  0  0  0  0  0  0  0  0  0  0
    3.6790  -12.6320   22.9200 C   0  0  0  0  0  0  0  0  0  0  0  0
    4.2770  -11.2850   23.2460 C   0  0  0  0  0  0  0  0  0  0  0  0
    4.0510  -10.6640   24.4650 C   0  0  0  0  0  0  0  0  0  0  0  0
    4.5840   -9.4270   24.7430 C   0  0  0  0  0  0  0  0  0  0  0  0
    5.3660   -8.7790   23.8000 C   0  0  0  0  0  0  0  0  0  0  0  0
    5.9240   -7.4800   24.0910 C   0  0  0  0  0  0  0  0  0  0  0  0
    6.3850   -6.4590   24.3800 N   0  0  0  0  0  0  0  0  0  0  0  0
    5.5930   -9.3780   22.5720 C   0  0  0  0  0  0  0  0  0  0  0  0
    5.0530  -10.6240   22.3080 C   0  0  0  0  0  0  0  0  0  0  0  0
    3.4860  -14.7340   25.9410 N   0  0  0  0  0  0  0  0  0  0  0  0
    4.3100  -15.4810   26.8820 C   0  0  0  0  0  0  0  0  0  0  0  0
    3.4760  -16.4700   27.6570 C   0  0  0  0  0  0  0  0  0  0  0  0
    2.4540  -15.8550   28.4320 O   0  0  0  0  0  0  0  0  0  0  0  0
    1.9160  -14.6960   27.8000 C   0  0  0  0  0  0  0  0  0  0  0  0
    2.0720  -14.7100   26.3030 C   0  0  0  0  0  0  0  0  0  0  0  0
  1  2  2  0
  2  3  1  0
  3  4  1  0
  4  5  1  0
  5  6  2  0
  6  7  1  0
  7  8  2  0
  8  9  1  0
  9 10  3  0
  8 11  1  0
 11 12  2  0
  2 13  1  0
 13 14  1  0
 14 15  1  0
 15 16  1  0
 16 17  1  0
 17 18  1  0
  5 12  1  0
 13 18  1  0
M  END
$$$$
