LYSRSCPZ-x0639_A_805_1_LYSRSCPZ-x0472+A+805+1__LIG
     RDKit          3D

 12 12  0  0  0  0  0  0  0  0999 V2000
   21.2880    6.5160   23.9630 C   0  0  0  0  0  0  0  0  0  0  0  0
   20.8400    7.6080   24.8240 N   0  0  0  0  0  0  0  0  0  0  0  0
   21.9240    8.3220   25.7780 S   0  0  0  0  0  0  0  0  0  0  0  0
   22.6960    7.2890   26.3940 O   0  0  0  0  0  0  0  0  0  0  0  0
   21.1830    9.2210   26.6110 O   0  0  0  0  0  0  0  0  0  0  0  0
   23.0110    9.2650   24.7390 C   0  0  0  0  0  0  0  0  0  0  0  0
   24.3740    9.0260   24.8830 C   0  0  0  0  0  0  0  0  0  0  0  0
   25.2950    9.7120   24.1100 C   0  0  0  0  0  0  0  0  0  0  0  0
   24.8690   10.6330   23.1870 C   0  0  0  0  0  0  0  0  0  0  0  0
   23.5220   10.8630   23.0070 C   0  0  0  0  0  0  0  0  0  0  0  0
   22.5900   10.1810   23.7710 C   0  0  0  0  0  0  0  0  0  0  0  0
   20.9200   10.5430   23.4710 Cl  0  0  0  0  0  0  0  0  0  0  0  0
  1  2  1  0
  2  3  1  0
  3  4  2  0
  3  5  2  0
  3  6  1  0
  6  7  2  0
  7  8  1  0
  8  9  2  0
  9 10  1  0
 10 11  2  0
 11 12  1  0
  6 11  1  0
M  END
$$$$
