LYSRSCPZ-x0419_A_901_1_LYSRSCPZ-x0602+B+701+1__LIG
     RDKit          3D

 18 19  0  0  0  0  0  0  0  0999 V2000
    5.7530   -7.7490   24.5700 C   0  0  0  0  0  0  0  0  0  0  0  0
    5.4230   -8.2910   23.2130 C   0  0  0  0  0  0  0  0  0  0  0  0
    5.4480   -7.5460   22.2410 O   0  0  0  0  0  0  0  0  0  0  0  0
    5.0830   -9.7440   23.0480 C   0  0  0  0  0  0  0  0  0  0  0  0
    5.3090  -10.3890   21.8340 C   0  0  0  0  0  0  0  0  0  0  0  0
    5.0270  -11.7370   21.6920 C   0  0  0  0  0  0  0  0  0  0  0  0
    4.4820  -12.4550   22.7330 C   0  0  0  0  0  0  0  0  0  0  0  0
    4.2290  -11.8280   23.9540 C   0  0  0  0  0  0  0  0  0  0  0  0
    3.6760  -12.6050   24.9990 N   0  0  0  0  0  0  0  0  0  0  0  0
    4.1680  -13.8190   25.4120 C   0  0  0  0  0  0  0  0  0  0  0  0
    5.2300  -14.2510   24.9590 O   0  0  0  0  0  0  0  0  0  0  0  0
    3.4800  -14.4710   26.3910 N   0  0  0  0  0  0  0  0  0  0  0  0
    2.2060  -13.9800   26.9200 C   0  0  0  0  0  0  0  0  0  0  0  0
    1.3550  -15.0700   27.5240 C   0  0  0  0  0  0  0  0  0  0  0  0
    2.0900  -15.8490   28.4520 O   0  0  0  0  0  0  0  0  0  0  0  0
    3.1040  -16.5320   27.7310 C   0  0  0  0  0  0  0  0  0  0  0  0
    4.1010  -15.5900   27.1000 C   0  0  0  0  0  0  0  0  0  0  0  0
    4.5470  -10.4770   24.1070 C   0  0  0  0  0  0  0  0  0  0  0  0
  1  2  1  0
  2  3  2  0
  2  4  1  0
  4  5  2  0
  5  6  1  0
  6  7  2  0
  7  8  1  0
  8  9  1  0
  9 10  1  0
 10 11  2  0
 10 12  1  0
 12 13  1  0
 13 14  1  0
 14 15  1  0
 15 16  1  0
 16 17  1  0
  8 18  2  0
  4 18  1  0
 12 17  1  0
M  END
$$$$
