LYSRSCPZ-x0419_C_1301_1_LYSRSCPZ-x0602+B+701+1__LIG
     RDKit          3D

 18 19  0  0  0  0  0  0  0  0999 V2000
    5.5830   -7.7680   24.6530 C   0  0  0  0  0  0  0  0  0  0  0  0
    5.3940   -8.2980   23.2650 C   0  0  0  0  0  0  0  0  0  0  0  0
    5.5220   -7.5460   22.3030 O   0  0  0  0  0  0  0  0  0  0  0  0
    5.0940   -9.7530   23.0540 C   0  0  0  0  0  0  0  0  0  0  0  0
    5.3800  -10.3640   21.8380 C   0  0  0  0  0  0  0  0  0  0  0  0
    5.1250  -11.7150   21.6570 C   0  0  0  0  0  0  0  0  0  0  0  0
    4.5710  -12.4730   22.6670 C   0  0  0  0  0  0  0  0  0  0  0  0
    4.2610  -11.8820   23.8920 C   0  0  0  0  0  0  0  0  0  0  0  0
    3.6760  -12.6790   24.9100 N   0  0  0  0  0  0  0  0  0  0  0  0
    4.1680  -13.8760   25.3730 C   0  0  0  0  0  0  0  0  0  0  0  0
    5.2240  -14.3310   24.9420 O   0  0  0  0  0  0  0  0  0  0  0  0
    3.4720  -14.5240   26.3490 N   0  0  0  0  0  0  0  0  0  0  0  0
    2.1610  -14.0830   26.8370 C   0  0  0  0  0  0  0  0  0  0  0  0
    1.4430  -15.1070   27.6790 C   0  0  0  0  0  0  0  0  0  0  0  0
    2.3080  -15.7090   28.6290 O   0  0  0  0  0  0  0  0  0  0  0  0
    3.2540  -16.4810   27.9160 C   0  0  0  0  0  0  0  0  0  0  0  0
    4.1360  -15.6470   27.0150 C   0  0  0  0  0  0  0  0  0  0  0  0
    4.5340  -10.5250   24.0750 C   0  0  0  0  0  0  0  0  0  0  0  0
  1  2  1  0
  2  3  2  0
  2  4  1  0
  4  5  2  0
  5  6  1  0
  6  7  2  0
  7  8  1  0
  8  9  1  0
  9 10  1  0
 10 11  2  0
 10 12  1  0
 12 13  1  0
 13 14  1  0
 14 15  1  0
 15 16  1  0
 16 17  1  0
  8 18  2  0
  4 18  1  0
 12 17  1  0
M  END
$$$$
