LYSRSCPZ-x0485_A_805_1_LYSRSCPZ-x0407+D+802+1__LIG
     RDKit          3D

 17 18  0  0  0  0  0  0  0  0999 V2000
    1.7660    6.4420   46.3980 C   0  0  0  0  0  0  0  0  0  0  0  0
    2.5920    5.3030   45.8760 C   0  0  0  0  0  0  0  0  0  0  0  0
    2.7190    4.1510   46.6530 C   0  0  0  0  0  0  0  0  0  0  0  0
    3.4710    3.0670   46.2270 C   0  0  0  0  0  0  0  0  0  0  0  0
    4.0840    3.1510   45.0120 C   0  0  0  0  0  0  0  0  0  0  0  0
    4.8250    2.0980   44.5810 F   0  0  0  0  0  0  0  0  0  0  0  0
    3.9980    4.2550   44.2010 C   0  0  0  0  0  0  0  0  0  0  0  0
    3.2460    5.3430   44.6330 C   0  0  0  0  0  0  0  0  0  0  0  0
    3.1450    6.5120   43.8150 N   0  0  0  0  0  0  0  0  0  0  0  0
    3.5610    6.7380   42.5400 C   0  0  0  0  0  0  0  0  0  0  0  0
    4.2360    5.9510   41.8860 O   0  0  0  0  0  0  0  0  0  0  0  0
    3.1650    8.0620   41.9470 C   0  0  0  0  0  0  0  0  0  0  0  0
    4.0880    8.8060   41.2180 C   0  0  0  0  0  0  0  0  0  0  0  0
    3.6940   10.0200   40.6890 C   0  0  0  0  0  0  0  0  0  0  0  0
    2.4670   10.5250   40.8340 N   0  0  0  0  0  0  0  0  0  0  0  0
    1.5880    9.8040   41.5340 C   0  0  0  0  0  0  0  0  0  0  0  0
    1.8820    8.5790   42.1000 C   0  0  0  0  0  0  0  0  0  0  0  0
  1  2  1  0
  2  3  2  0
  3  4  1  0
  4  5  2  0
  5  6  1  0
  5  7  1  0
  7  8  2  0
  8  9  1  0
  9 10  1  0
 10 11  2  0
 10 12  1  0
 12 13  2  0
 13 14  1  0
 14 15  2  0
 15 16  1  0
 16 17  2  0
  2  8  1  0
 12 17  1  0
M  END
$$$$
