LYSRSCPZ-x0504_D_802_1_LYSRSCPZ-x0407+D+802+1__LIG
     RDKit          3D

 15 15  0  0  0  0  0  0  0  0999 V2000
    4.7250    9.2980   40.5390 C   0  0  0  0  0  0  0  0  0  0  0  0
    3.5130    8.5590   40.8770 N   0  0  0  0  0  0  0  0  0  0  0  0
    2.3800    8.8590   40.0050 C   0  0  0  0  0  0  0  0  0  0  0  0
    3.4720    7.6940   41.9040 C   0  0  0  0  0  0  0  0  0  0  0  0
    4.4710    7.4420   42.5710 O   0  0  0  0  0  0  0  0  0  0  0  0
    2.1400    7.0310   42.2550 C   0  0  0  0  0  0  0  0  0  0  0  0
    2.1870    6.1600   43.4090 N   0  0  0  0  0  0  0  0  0  0  0  0
    2.9090    5.0340   43.4120 C   0  0  0  0  0  0  0  0  0  0  0  0
    3.4750    4.5940   42.4110 O   0  0  0  0  0  0  0  0  0  0  0  0
    3.0190    4.3150   44.7040 C   0  0  0  0  0  0  0  0  0  0  0  0
    2.2510    4.9380   46.1080 S   0  0  0  0  0  0  0  0  0  0  0  0
    2.8120    3.6300   47.0260 C   0  0  0  0  0  0  0  0  0  0  0  0
    3.5430    2.7860   46.3640 N   0  0  0  0  0  0  0  0  0  0  0  0
    3.6550    3.1440   45.0340 C   0  0  0  0  0  0  0  0  0  0  0  0
    4.4170    2.2410   44.1170 C   0  0  0  0  0  0  0  0  0  0  0  0
  1  2  1  0
  2  3  1  0
  2  4  1  0
  4  5  2  0
  4  6  1  0
  6  7  1  0
  7  8  1  0
  8  9  2  0
  8 10  1  0
 10 11  1  0
 11 12  1  0
 12 13  2  0
 13 14  1  0
 14 15  1  0
 10 14  2  0
M  END
$$$$
